gem5 Simulator System.  http://gem5.org
gem5 is copyrighted software; use the --copyright option for details.

gem5 compiled Nov 11 2014 20:58:01
gem5 started Jan 22 2015 11:05:46
gem5 executing on mahesh-MacBookPro
command line: build/ARM/gem5.opt configs/example/se_hetro.py -n 2 --cpu-type timing -c ../../mypro/Test_Loops/loop1/loop1
Global frequency set at 1000000000000 ticks per second
