gem5 Simulator System.  http://gem5.org
gem5 is copyrighted software; use the --copyright option for details.

gem5 compiled Feb 25 2016 21:24:16
gem5 started Feb 27 2016 21:27:46
gem5 executing on SPARC
command line: ../../gem5/build/ARM/gem5.opt ../../gem5/configs/example/se_hetro.py -n 2 --cpu-type timing -c obj_loop
Global frequency set at 1000000000000 ticks per second
CGRA instantiated

MASTER system_port binds to SLAVE system.membus.slave[0]

MASTER system.membus.master[0] binds to SLAVE system.mem_ctrls.port

MASTER system.cpu0.icache_port binds to SLAVE system.membus.slave[1]

MASTER system.cpu0.dcache_port binds to SLAVE system.membus.slave[2]

MASTER system.cpu0.dtb.walker.dma binds to SLAVE system.membus.slave[4]

MASTER system.cpu0.itb.walker.dma binds to SLAVE system.membus.slave[3]

MASTER system.cpu1.icache_port binds to SLAVE system.membus.slave[5]

MASTER system.cpu1.dcache_port1 binds to SLAVE system.membus.slave[9]

MASTER system.cpu1.dcache_port2 binds to SLAVE system.membus.slave[10]

MASTER system.cpu1.dcache_port3 binds to SLAVE system.membus.slave[11]

MASTER system.cpu1.dcache_port4 binds to SLAVE system.membus.slave[12]

MASTER system.cpu1.dcache_port binds to SLAVE system.membus.slave[6]

MASTER system.cpu1.dtb.walker.dma binds to SLAVE system.membus.slave[8]

MASTER system.cpu1.itb.walker.dma binds to SLAVE system.membus.slave[7]
**** REAL SIMULATION ****
info: Entering event queue @ 0.  Starting simulation...
info: Increasing stack size by one page.

**********DIPAL 1*********

**********EPISIZE 80*********

**********PROSIZE 256*********

**********KERNSIZE 64*********

******SIZE OF UNISGNED INT 4*****

**********livevar_st_size 32*********

**********II 4*********

**********PROLOG PC 0x99da8*********

**********PROLOG[1]  96004080*********

**********PROLOG[2]  77e00000*********

**********KERNEL PC 0x9a1b0*********

**********EPILOG PC 0x99c60*********

ADDRESS TO MODIFY (ARM): 9308c size of int is 4ORIGINAL VALUE: 20 ADDRESS=9308cMain thread initialized. TID=622592
Main thread called pthread_attr_init
Main thread called pthread_attr_setscope
Main thread creating 1st thread...
Main thread creating 2nd thread...

CALL IN COMPLETEIFETCH SECOND IF.

CALL IN COMPLETEIFETCH SECOND IF.

CALL IN COMPLETEIFETCH SECOND IF.

CALL IN COMPLETEIFETCH SECOND IF.

CALL IN COMPLETE DATA ACESSS MAIN IF.

CALL IN COMPLETE DATA ACESSS MAIN IF.

CALL IN COMPLETEIFETCH SECOND IF.

CALL IN COMPLETEIFETCH SECOND IF.

CALL IN COMPLETEIFETCH SECOND IF.

CALL IN COMPLETE DATA ACESSS MAIN IF.

CALL IN COMPLETE DATA ACESSS MAIN IF.

CALL IN COMPLETE DATA ACESSS MAIN IF.

CALL IN COMPLETE DATA ACESSS MAIN IF.

CALL IN COMPLETE DATA ACESSS MAIN IF.

CALL IN COMPLETE DATA ACESSS MAIN IF.

CALL IN COMPLETE DATA ACESSS MAIN IF.

CALL IN COMPLETEIFETCH SECOND IF.

CALL IN COMPLETEIFETCH SECOND IF.

CALL IN COMPLETEIFETCH SECOND IF.

CALL IN COMPLETE DATA ACESSS MAIN IF.

CALL IN COMPLETEIFETCH SECOND IF.

CALL IN COMPLETE DATA ACESSS MAIN IF.

CALL IN COMPLETEIFETCH SECOND IF.

CALL IN COMPLETE DATA ACESSS MAIN IF.

CALL IN COMPLETEIFETCH SECOND IF.

CALL IN COMPLETEIFETCH SECOND IF.

CALL IN COMPLETEIFETCH SECOND IF.

CALL IN COMPLETEIFETCH SECOND IF.

CALL IN COMPLETEIFETCH SECOND IF.

CALL IN COMPLETE DATA ACESSS MAIN IF.

CALL IN COMPLETEIFETCH SECOND IF.

CALL IN COMPLETE DATA ACESSS MAIN IF.

CALL IN COMPLETEIFETCH SECOND IF.

CALL IN COMPLETE DATA ACESSS MAIN IF.

CALL IN COMPLETEIFETCH SECOND IF.

CALL IN COMPLETEIFETCH SECOND IF.

CALL IN COMPLETEIFETCH SECOND IF.

CALL IN COMPLETEIFETCH SECOND IF.

CALL IN COMPLETEIFETCH SECOND IF.

CALL IN COMPLETE DATA ACESSS MAIN IF.

CALL IN COMPLETE DATA ACESSS MAIN IF.

CALL IN COMPLETE DATA ACESSS MAIN IF.

CALL IN COMPLETE DATA ACESSS MAIN IF.

CALL IN COMPLETE DATA ACESSS MAIN IF.

CALL IN COMPLETE DATA ACESSS MAIN IF.

CALL IN COMPLETEIFETCH SECOND IF.

CALL IN COMPLETEIFETCH SECOND IF.

CALL IN COMPLETE DATA ACESSS MAIN IF.

CALL IN COMPLETE DATA ACESSS MAIN IF.

CALL IN COMPLETE DATA ACESSS MAIN IF.

CALL IN COMPLETEIFETCH SECOND IF.

CALL IN COMPLETE DATA ACESSS MAIN IF.

CALL IN COMPLETE DATA ACESSS MAIN IF.

CALL IN COMPLETE DATA ACESSS MAIN IF.

CALL IN COMPLETEIFETCH SECOND IF.

CALL IN COMPLETE DATA ACESSS MAIN IF.

CALL IN COMPLETE DATA ACESSS MAIN IF.

CALL IN COMPLETEIFETCH SECOND IF.

CALL IN COMPLETEIFETCH SECOND IF.

CALL IN COMPLETE DATA ACESSS MAIN IF.

CALL IN COMPLETEIFETCH SECOND IF.

CALL IN COMPLETE DATA ACESSS MAIN IF.

CALL IN COMPLETE DATA ACESSS MAIN IF.

CALL IN COMPLETEIFETCH SECOND IF.

CALL IN COMPLETE DATA ACESSS MAIN IF.

CALL IN COMPLETE DATA ACESSS MAIN IF.

CALL IN COMPLETEIFETCH SECOND IF.

CALL IN COMPLETE DATA ACESSS MAIN IF.

CALL IN COMPLETEIFETCH SECOND IF.

CALL IN COMPLETEIFETCH SECOND IF.

CALL IN COMPLETEIFETCH SECOND IF.

CALL IN COMPLETEIFETCH SECOND IF.

CALL IN COMPLETEIFETCH SECOND IF.

CALL IN COMPLETEIFETCH SECOND IF.

CALL IN COMPLETE DATA ACESSS MAIN IF.

CALL IN COMPLETEIFETCH SECOND IF.

CALL IN COMPLETE DATA ACESSS MAIN IF.

CALL IN COMPLETEIFETCH SECOND IF.

CALL IN COMPLETEIFETCH SECOND IF.

CALL IN COMPLETEIFETCH SECOND IF.

CALL IN COMPLETEIFETCH SECOND IF.

CALL IN COMPLETEIFETCH SECOND IF.

CALL IN COMPLETEIFETCH SECOND IF.

CALL IN COMPLETEIFETCH SECOND IF.

CALL IN COMPLETEIFETCH SECOND IF.

CALL IN COMPLETEIFETCH SECOND IF.

CALL IN COMPLETEIFETCH SECOND IF.

CALL IN COMPLETEIFETCH SECOND IF.

CALL IN COMPLETE DATA ACESSS MAIN IF.

CALL IN COMPLETEIFETCH SECOND IF.

CALL IN COMPLETEIFETCH SECOND IF.

CALL IN COMPLETE DATA ACESSS MAIN IF.

CALL IN COMPLETEIFETCH SECOND IF.

CALL IN COMPLETE DATA ACESSS MAIN IF.

CALL IN COMPLETE DATA ACESSS MAIN IF.

CALL IN COMPLETEIFETCH SECOND IF.

CALL IN COMPLETEIFETCH SECOND IF.

CALL IN COMPLETEIFETCH SECOND IF.

CALL IN COMPLETEIFETCH SECOND IF.

CALL IN COMPLETE DATA ACESSS MAIN IF.

CALL IN COMPLETE DATA ACESSS MAIN IF.

CALL IN COMPLETEIFETCH SECOND IF.

CALL IN COMPLETEIFETCH SECOND IF.

CALL IN COMPLETEIFETCH SECOND IF.

CALL IN COMPLETE DATA ACESSS MAIN IF.

CALL IN COMPLETE DATA ACESSS MAIN IF.

CALL IN COMPLETEIFETCH SECOND IF.

CALL IN COMPLETEIFETCH SECOND IF.

CALL IN COMPLETE DATA ACESSS MAIN IF.

CALL IN COMPLETE DATA ACESSS MAIN IF.

CALL IN COMPLETE DATA ACESSS MAIN IF.

CALL IN COMPLETE DATA ACESSS MAIN IF.

CALL IN COMPLETE DATA ACESSS MAIN IF.

CALL IN COMPLETE DATA ACESSS MAIN IF.

CALL IN COMPLETE DATA ACESSS MAIN IF.

CALL IN COMPLETE DATA ACESSS MAIN IF.

CALL IN COMPLETEIFETCH SECOND IF.

CALL IN COMPLETEIFETCH SECOND IF.

CALL IN COMPLETEIFETCH SECOND IF.

CALL IN COMPLETE DATA ACESSS MAIN IF.

CALL IN COMPLETEIFETCH SECOND IF.

CALL IN COMPLETEIFETCH SECOND IF.

CALL IN COMPLETE DATA ACESSS MAIN IF.

CALL IN COMPLETEIFETCH SECOND IF.

CALL IN COMPLETE DATA ACESSS MAIN IF.

CALL IN COMPLETE DATA ACESSS MAIN IF.

CALL IN COMPLETEIFETCH SECOND IF.

CALL IN COMPLETEIFETCH SECOND IF.

CALL IN COMPLETE DATA ACESSS MAIN IF.

CALL IN COMPLETE DATA ACESSS MAIN IF.

CALL IN COMPLETE DATA ACESSS MAIN IF.

CALL IN COMPLETE DATA ACESSS MAIN IF.

CALL IN COMPLETE DATA ACESSS MAIN IF.

CALL IN COMPLETE DATA ACESSS MAIN IF.

CALL IN COMPLETE DATA ACESSS MAIN IF.

CALL IN COMPLETE DATA ACESSS MAIN IF.

CALL IN COMPLETE DATA ACESSS MAIN IF.

CALL IN COMPLETE DATA ACESSS MAIN IF.

CALL IN COMPLETE DATA ACESSS MAIN IF.

CALL IN COMPLETE DATA ACESSS MAIN IF.

CALL IN COMPLETE DATA ACESSS MAIN IF.

CALL IN COMPLETE DATA ACESSS MAIN IF.

CALL IN COMPLETE DATA ACESSS MAIN IF.

CALL IN COMPLETE DATA ACESSS MAIN IF.

CALL IN COMPLETEIFETCH SECOND IF.

CALL IN COMPLETEIFETCH SECOND IF.

CALL IN COMPLETEIFETCH SECOND IF.

CALL IN COMPLETEIFETCH SECOND IF.

CALL IN COMPLETEIFETCH SECOND IF.

CALL IN COMPLETEIFETCH SECOND IF.

CALL IN COMPLETE DATA ACESSS MAIN IF.

CALL IN COMPLETE DATA ACESSS MAIN IF.

CALL IN COMPLETEIFETCH SECOND IF.

CALL IN COMPLETEIFETCH SECOND IF.

CALL IN COMPLETEIFETCH SECOND IF.

CALL IN COMPLETEIFETCH SECOND IF.

CALL IN COMPLETE DATA ACESSS MAIN IF.

CALL IN COMPLETEIFETCH SECOND IF.

CALL IN COMPLETEIFETCH SECOND IF.

CALL IN COMPLETE DATA ACESSS MAIN IF.

CALL IN COMPLETE DATA ACESSS MAIN IF.

CALL IN COMPLETEIFETCH SECOND IF.

CALL IN COMPLETEIFETCH SECOND IF.

CALL IN COMPLETEIFETCH SECOND IF.

CALL IN COMPLETEIFETCH SECOND IF.

CALL IN COMPLETE DATA ACESSS MAIN IF.

CALL IN COMPLETE DATA ACESSS MAIN IF.

CALL IN COMPLETE DATA ACESSS MAIN IF.

CALL IN COMPLETEIFETCH SECOND IF.

CALL IN COMPLETEIFETCH SECOND IF.

CALL IN COMPLETE DATA ACESSS MAIN IF.

CALL IN COMPLETEIFETCH SECOND IF.

CALL IN COMPLETE DATA ACESSS MAIN IF.

CALL IN COMPLETE DATA ACESSS MAIN IF.

CALL IN COMPLETE DATA ACESSS MAIN IF.

CALL IN COMPLETEIFETCH SECOND IF.

CALL IN COMPLETEIFETCH SECOND IF.

CALL IN COMPLETE DATA ACESSS MAIN IF.

CALL IN COMPLETE DATA ACESSS MAIN IF.

CALL IN COMPLETEIFETCH SECOND IF.

CALL IN COMPLETEIFETCH SECOND IF.

CALL IN COMPLETEIFETCH SECOND IF.

CALL IN COMPLETE DATA ACESSS MAIN IF.

CALL IN COMPLETE DATA ACESSS MAIN IF.

CALL IN COMPLETEIFETCH SECOND IF.

CALL IN COMPLETEIFETCH SECOND IF.

CALL IN COMPLETE DATA ACESSS MAIN IF.

CALL IN COMPLETE DATA ACESSS MAIN IF.

CALL IN COMPLETE DATA ACESSS MAIN IF.

CALL IN COMPLETE DATA ACESSS MAIN IF.

CALL IN COMPLETE DATA ACESSS MAIN IF.

CALL IN COMPLETE DATA ACESSS MAIN IF.

CALL IN COMPLETE DATA ACESSS MAIN IF.

CALL IN COMPLETE DATA ACESSS MAIN IF.

CALL IN COMPLETEIFETCH SECOND IF.

CALL IN COMPLETEIFETCH SECOND IF.

CALL IN COMPLETEIFETCH SECOND IF.

CALL IN COMPLETEIFETCH SECOND IF.

CALL IN COMPLETE DATA ACESSS MAIN IF.

CALL IN COMPLETEIFETCH SECOND IF.

CALL IN COMPLETEIFETCH SECOND IF.

CALL IN COMPLETEIFETCH SECOND IF.

CALL IN COMPLETEIFETCH SECOND IF.

CALL IN COMPLETEIFETCH SECOND IF.

CALL IN COMPLETEIFETCH SECOND IF.

CALL IN COMPLETEIFETCH SECOND IF.

CALL IN COMPLETEIFETCH SECOND IF.

CALL IN COMPLETEIFETCH SECOND IF.

CALL IN COMPLETE DATA ACESSS MAIN IF.

CALL IN COMPLETEIFETCH SECOND IF.

CALL IN COMPLETEIFETCH SECOND IF.

CALL IN COMPLETEIFETCH SECOND IF.

CALL IN COMPLETEIFETCH SECOND IF.

CALL IN COMPLETEIFETCH SECOND IF.

CALL IN COMPLETEIFETCH SECOND IF.

CALL IN COMPLETEIFETCH SECOND IF.

CALL IN COMPLETE DATA ACESSS MAIN IF.

CALL IN COMPLETEIFETCH SECOND IF.

CALL IN COMPLETEIFETCH SECOND IF.

CALL IN COMPLETEIFETCH SECOND IF.

CALL IN COMPLETEIFETCH SECOND IF.

CALL IN COMPLETEIFETCH SECOND IF.

CALL IN COMPLETEIFETCH SECOND IF.

CALL IN COMPLETEIFETCH SECOND IF.

CALL IN COMPLETE DATA ACESSS MAIN IF.

CALL IN COMPLETEIFETCH SECOND IF.

CALL IN COMPLETEIFETCH SECOND IF.

CALL IN COMPLETEIFETCH SECOND IF.

CALL IN COMPLETEIFETCH SECOND IF.

CALL IN COMPLETEIFETCH SECOND IF.

CALL IN COMPLETEIFETCH SECOND IF.

CALL IN COMPLETEIFETCH SECOND IF.

CALL IN COMPLETE DATA ACESSS MAIN IF.

CALL IN COMPLETEIFETCH SECOND IF.

CALL IN COMPLETEIFETCH SECOND IF.

CALL IN COMPLETEIFETCH SECOND IF.

CALL IN COMPLETEIFETCH SECOND IF.

CALL IN COMPLETEIFETCH SECOND IF.

CALL IN COMPLETEIFETCH SECOND IF.

CALL IN COMPLETEIFETCH SECOND IF.

CALL IN COMPLETE DATA ACESSS MAIN IF.

CALL IN COMPLETEIFETCH SECOND IF.

CALL IN COMPLETEIFETCH SECOND IF.

CALL IN COMPLETEIFETCH SECOND IF.

CALL IN COMPLETEIFETCH SECOND IF.

CALL IN COMPLETEIFETCH SECOND IF.

CALL IN COMPLETEIFETCH SECOND IF.

CALL IN COMPLETEIFETCH SECOND IF.

CALL IN COMPLETE DATA ACESSS MAIN IF.

CALL IN COMPLETEIFETCH SECOND IF.

CALL IN COMPLETEIFETCH SECOND IF.

CALL IN COMPLETEIFETCH SECOND IF.

CALL IN COMPLETEIFETCH SECOND IF.

CALL IN COMPLETEIFETCH SECOND IF.

CALL IN COMPLETEIFETCH SECOND IF.

CALL IN COMPLETEIFETCH SECOND IF.

CALL IN COMPLETE DATA ACESSS MAIN IF.

CALL IN COMPLETEIFETCH SECOND IF.

CALL IN COMPLETEIFETCH SECOND IF.

CALL IN COMPLETEIFETCH SECOND IF.

CALL IN COMPLETEIFETCH SECOND IF.

CALL IN COMPLETEIFETCH SECOND IF.

CALL IN COMPLETEIFETCH SECOND IF.

CALL IN COMPLETEIFETCH SECOND IF.

CALL IN COMPLETE DATA ACESSS MAIN IF.

CALL IN COMPLETEIFETCH SECOND IF.

CALL IN COMPLETEIFETCH SECOND IF.

CALL IN COMPLETEIFETCH SECOND IF.

CALL IN COMPLETEIFETCH SECOND IF.

CALL IN COMPLETEIFETCH SECOND IF.

CALL IN COMPLETEIFETCH SECOND IF.

CALL IN COMPLETEIFETCH SECOND IF.

CALL IN COMPLETE DATA ACESSS MAIN IF.

CALL IN COMPLETEIFETCH SECOND IF.

CALL IN COMPLETEIFETCH SECOND IF.

CALL IN COMPLETEIFETCH SECOND IF.

CALL IN COMPLETEIFETCH SECOND IF.

CALL IN COMPLETEIFETCH SECOND IF.

CALL IN COMPLETEIFETCH SECOND IF.

CALL IN COMPLETEIFETCH SECOND IF.

CALL IN COMPLETE DATA ACESSS MAIN IF.

CALL IN COMPLETEIFETCH SECOND IF.

CALL IN COMPLETEIFETCH SECOND IF.

CALL IN COMPLETEIFETCH SECOND IF.

CALL IN COMPLETEIFETCH SECOND IF.

CALL IN COMPLETEIFETCH SECOND IF.

CALL IN COMPLETEIFETCH SECOND IF.

CALL IN COMPLETEIFETCH SECOND IF.

CALL IN COMPLETEIFETCH MAIN IF.

CALL IN COMPLETEIFETCH SECOND IF.

CALL IN COMPLETEIFETCH SECOND IF.

CALL IN COMPLETEIFETCH SECOND IF.

CALL IN COMPLETEIFETCH SECOND IF.

CALL IN COMPLETEIFETCH SECOND IF.

CALL IN COMPLETEIFETCH SECOND IF.

CALL IN COMPLETEIFETCH SECOND IF.

CALL IN COMPLETEIFETCH SECOND IF.

CALL IN COMPLETEIFETCH SECOND IF.

CALL IN COMPLETE DATA ACESSS MAIN IF.

CALL IN COMPLETEIFETCH SECOND IF.

CALL IN COMPLETE DATA ACESSS MAIN IF.

CALL IN COMPLETE DATA ACESSS MAIN IF.

CALL IN COMPLETEIFETCH SECOND IF.

CALL IN COMPLETEIFETCH SECOND IF.

CALL IN COMPLETE DATA ACESSS MAIN IF.

CALL IN COMPLETEIFETCH SECOND IF.

CALL IN COMPLETEIFETCH SECOND IF.

CALL IN COMPLETEIFETCH SECOND IF.

CALL IN COMPLETEIFETCH SECOND IF.

CALL IN COMPLETEIFETCH SECOND IF.

CALL IN COMPLETE DATA ACESSS MAIN IF.

CALL IN COMPLETEIFETCH SECOND IF.

CALL IN COMPLETEIFETCH SECOND IF.

CALL IN COMPLETEIFETCH SECOND IF.

CALL IN COMPLETEIFETCH SECOND IF.

CALL IN COMPLETEIFETCH SECOND IF.

CALL IN COMPLETE DATA ACESSS MAIN IF.

CALL IN COMPLETEIFETCH SECOND IF.

CALL IN COMPLETEIFETCH SECOND IF.

CALL IN COMPLETEIFETCH SECOND IF.

CALL IN COMPLETEIFETCH SECOND IF.

CALL IN COMPLETEIFETCH SECOND IF.

CALL IN COMPLETEIFETCH SECOND IF.

CALL IN COMPLETE DATA ACESSS MAIN IF.

CALL IN COMPLETEIFETCH SECOND IF.

CALL IN COMPLETE DATA ACESSS MAIN IF.

CALL IN COMPLETEIFETCH SECOND IF.

CALL IN COMPLETEIFETCH SECOND IF.

CALL IN COMPLETEIFETCH SECOND IF.

CALL IN COMPLETEIFETCH SECOND IF.

CALL IN COMPLETEIFETCH SECOND IF.

CALL IN COMPLETEIFETCH SECOND IF.

CALL IN COMPLETEIFETCH SECOND IF.

CALL IN COMPLETEIFETCH SECOND IF.

CALL IN COMPLETEIFETCH SECOND IF.

CALL IN COMPLETE DATA ACESSS MAIN IF.

CALL IN COMPLETE DATA ACESSS MAIN IF.

CALL IN COMPLETE DATA ACESSS MAIN IF.

CALL IN COMPLETE DATA ACESSS MAIN IF.

CALL IN COMPLETEIFETCH SECOND IF.

CALL IN COMPLETE DATA ACESSS MAIN IF.

CALL IN COMPLETEIFETCH SECOND IF.

CALL IN COMPLETE DATA ACESSS MAIN IF.

CALL IN COMPLETEIFETCH SECOND IF.

CALL IN COMPLETEIFETCH SECOND IF.

CALL IN COMPLETEIFETCH MAIN IF.

CALL IN COMPLETEIFETCH SECOND IF.

CALL IN COMPLETEIFETCH SECOND IF.

CALL IN COMPLETEIFETCH SECOND IF.

CALL IN COMPLETE DATA ACESSS MAIN IF.

CALL IN COMPLETEIFETCH SECOND IF.

CALL IN COMPLETE DATA ACESSS MAIN IF.

CALL IN COMPLETEIFETCH SECOND IF.

CALL IN COMPLETEIFETCH SECOND IF.

CALL IN COMPLETEIFETCH SECOND IF.

CALL IN COMPLETE DATA ACESSS MAIN IF.

CALL IN COMPLETE DATA ACESSS MAIN IF.

CALL IN COMPLETE DATA ACESSS MAIN IF.

CALL IN COMPLETE DATA ACESSS MAIN IF.

CALL IN COMPLETE DATA ACESSS MAIN IF.

CALL IN COMPLETE DATA ACESSS MAIN IF.

CALL IN COMPLETEIFETCH SECOND IF.

CALL IN COMPLETEIFETCH SECOND IF.

CALL IN COMPLETEIFETCH SECOND IF.

CALL IN COMPLETE DATA ACESSS MAIN IF.

CALL IN COMPLETEIFETCH SECOND IF.

CALL IN COMPLETEIFETCH SECOND IF.

CALL IN COMPLETEIFETCH SECOND IF.

CALL IN COMPLETEIFETCH SECOND IF.

CALL IN COMPLETEIFETCH SECOND IF.

CALL IN COMPLETE DATA ACESSS MAIN IF.

CALL IN COMPLETE DATA ACESSS MAIN IF.

CALL IN COMPLETEIFETCH SECOND IF.

CALL IN COMPLETEIFETCH SECOND IF.

CALL IN COMPLETEIFETCH SECOND IF.

CALL IN COMPLETEIFETCH SECOND IF.

CALL IN COMPLETEIFETCH SECOND IF.

CALL IN COMPLETEIFETCH SECOND IF.

CALL IN COMPLETE DATA ACESSS MAIN IF.

CALL IN COMPLETEIFETCH SECOND IF.

CALL IN COMPLETEIFETCH SECOND IF.

CALL IN COMPLETEIFETCH SECOND IF.

CALL IN COMPLETEIFETCH SECOND IF.

CALL IN COMPLETEIFETCH SECOND IF.

CALL IN COMPLETE DATA ACESSS MAIN IF.

CALL IN COMPLETEIFETCH SECOND IF.

CALL IN COMPLETEIFETCH SECOND IF.

CALL IN COMPLETEIFETCH SECOND IF.

CALL IN COMPLETEIFETCH SECOND IF.

CALL IN COMPLETEIFETCH SECOND IF.

CALL IN COMPLETE DATA ACESSS MAIN IF.

CALL IN COMPLETEIFETCH SECOND IF.

CALL IN COMPLETEIFETCH SECOND IF.

CALL IN COMPLETEIFETCH SECOND IF.

CALL IN COMPLETEIFETCH SECOND IF.

CALL IN COMPLETEIFETCH SECOND IF.

CALL IN COMPLETE DATA ACESSS MAIN IF.

CALL IN COMPLETEIFETCH SECOND IF.

CALL IN COMPLETEIFETCH SECOND IF.

CALL IN COMPLETEIFETCH SECOND IF.

CALL IN COMPLETEIFETCH SECOND IF.

CALL IN COMPLETEIFETCH SECOND IF.

CALL IN COMPLETE DATA ACESSS MAIN IF.

CALL IN COMPLETEIFETCH SECOND IF.

CALL IN COMPLETEIFETCH SECOND IF.

CALL IN COMPLETEIFETCH SECOND IF.

CALL IN COMPLETEIFETCH SECOND IF.

CALL IN COMPLETEIFETCH SECOND IF.

CALL IN COMPLETE DATA ACESSS MAIN IF.

CALL IN COMPLETEIFETCH SECOND IF.

CALL IN COMPLETEIFETCH SECOND IF.

CALL IN COMPLETEIFETCH SECOND IF.

CALL IN COMPLETEIFETCH SECOND IF.

CALL IN COMPLETEIFETCH SECOND IF.

CALL IN COMPLETE DATA ACESSS MAIN IF.

CALL IN COMPLETEIFETCH SECOND IF.

CALL IN COMPLETEIFETCH SECOND IF.

CALL IN COMPLETEIFETCH SECOND IF.

CALL IN COMPLETEIFETCH SECOND IF.

CALL IN COMPLETEIFETCH SECOND IF.

CALL IN COMPLETE DATA ACESSS MAIN IF.

CALL IN COMPLETEIFETCH SECOND IF.

CALL IN COMPLETEIFETCH SECOND IF.

CALL IN COMPLETEIFETCH SECOND IF.

CALL IN COMPLETEIFETCH SECOND IF.

CALL IN COMPLETEIFETCH SECOND IF.

CALL IN COMPLETE DATA ACESSS MAIN IF.

CALL IN COMPLETEIFETCH SECOND IF.

CALL IN COMPLETEIFETCH SECOND IF.

CALL IN COMPLETEIFETCH SECOND IF.

CALL IN COMPLETEIFETCH SECOND IF.

CALL IN COMPLETEIFETCH SECOND IF.

CALL IN COMPLETE DATA ACESSS MAIN IF.

CALL IN COMPLETEIFETCH SECOND IF.

CALL IN COMPLETEIFETCH SECOND IF.

CALL IN COMPLETEIFETCH SECOND IF.

CALL IN COMPLETEIFETCH SECOND IF.

CALL IN COMPLETEIFETCH SECOND IF.

CALL IN COMPLETE DATA ACESSS MAIN IF.

CALL IN COMPLETEIFETCH SECOND IF.

CALL IN COMPLETEIFETCH SECOND IF.

CALL IN COMPLETEIFETCH SECOND IF.

CALL IN COMPLETEIFETCH SECOND IF.

CALL IN COMPLETEIFETCH SECOND IF.

CALL IN COMPLETE DATA ACESSS MAIN IF.

CALL IN COMPLETEIFETCH SECOND IF.

CALL IN COMPLETEIFETCH SECOND IF.

CALL IN COMPLETEIFETCH SECOND IF.

CALL IN COMPLETEIFETCH SECOND IF.

CALL IN COMPLETEIFETCH SECOND IF.

CALL IN COMPLETE DATA ACESSS MAIN IF.

CALL IN COMPLETEIFETCH SECOND IF.

CALL IN COMPLETEIFETCH SECOND IF.

CALL IN COMPLETEIFETCH SECOND IF.

CALL IN COMPLETEIFETCH SECOND IF.

CALL IN COMPLETEIFETCH SECOND IF.

CALL IN COMPLETE DATA ACESSS MAIN IF.

CALL IN COMPLETEIFETCH SECOND IF.

CALL IN COMPLETEIFETCH SECOND IF.

CALL IN COMPLETEIFETCH SECOND IF.

CALL IN COMPLETEIFETCH SECOND IF.

CALL IN COMPLETEIFETCH SECOND IF.

CALL IN COMPLETE DATA ACESSS MAIN IF.

CALL IN COMPLETEIFETCH SECOND IF.

CALL IN COMPLETEIFETCH SECOND IF.

CALL IN COMPLETEIFETCH SECOND IF.

CALL IN COMPLETEIFETCH SECOND IF.

CALL IN COMPLETEIFETCH SECOND IF.

CALL IN COMPLETE DATA ACESSS MAIN IF.

CALL IN COMPLETEIFETCH SECOND IF.

CALL IN COMPLETEIFETCH SECOND IF.

CALL IN COMPLETEIFETCH SECOND IF.

CALL IN COMPLETEIFETCH SECOND IF.

CALL IN COMPLETEIFETCH SECOND IF.

CALL IN COMPLETE DATA ACESSS MAIN IF.

CALL IN COMPLETEIFETCH SECOND IF.

CALL IN COMPLETEIFETCH SECOND IF.

CALL IN COMPLETEIFETCH SECOND IF.

CALL IN COMPLETEIFETCH SECOND IF.

CALL IN COMPLETEIFETCH SECOND IF.

CALL IN COMPLETE DATA ACESSS MAIN IF.

CALL IN COMPLETEIFETCH SECOND IF.

CALL IN COMPLETEIFETCH SECOND IF.

CALL IN COMPLETEIFETCH SECOND IF.

CALL IN COMPLETEIFETCH SECOND IF.

CALL IN COMPLETEIFETCH SECOND IF.

CALL IN COMPLETE DATA ACESSS MAIN IF.

CALL IN COMPLETEIFETCH SECOND IF.

CALL IN COMPLETEIFETCH SECOND IF.

CALL IN COMPLETEIFETCH SECOND IF.

CALL IN COMPLETEIFETCH SECOND IF.

CALL IN COMPLETEIFETCH SECOND IF.

CALL IN COMPLETE DATA ACESSS MAIN IF.

CALL IN COMPLETEIFETCH SECOND IF.

CALL IN COMPLETEIFETCH SECOND IF.

CALL IN COMPLETEIFETCH SECOND IF.

CALL IN COMPLETEIFETCH SECOND IF.

CALL IN COMPLETEIFETCH SECOND IF.

CALL IN COMPLETE DATA ACESSS MAIN IF.

CALL IN COMPLETEIFETCH SECOND IF.

CALL IN COMPLETEIFETCH SECOND IF.

CALL IN COMPLETEIFETCH SECOND IF.

CALL IN COMPLETEIFETCH SECOND IF.

CALL IN COMPLETEIFETCH SECOND IF.

CALL IN COMPLETE DATA ACESSS MAIN IF.

CALL IN COMPLETEIFETCH SECOND IF.

CALL IN COMPLETEIFETCH SECOND IF.

CALL IN COMPLETEIFETCH SECOND IF.

CALL IN COMPLETEIFETCH SECOND IF.

CALL IN COMPLETEIFETCH SECOND IF.

CALL IN COMPLETE DATA ACESSS MAIN IF.

CALL IN COMPLETEIFETCH SECOND IF.

CALL IN COMPLETEIFETCH SECOND IF.

CALL IN COMPLETEIFETCH SECOND IF.

CALL IN COMPLETEIFETCH SECOND IF.

CALL IN COMPLETEIFETCH SECOND IF.

CALL IN COMPLETE DATA ACESSS MAIN IF.

CALL IN COMPLETEIFETCH SECOND IF.

CALL IN COMPLETEIFETCH SECOND IF.

CALL IN COMPLETEIFETCH SECOND IF.

CALL IN COMPLETEIFETCH SECOND IF.

CALL IN COMPLETEIFETCH SECOND IF.

CALL IN COMPLETE DATA ACESSS MAIN IF.

CALL IN COMPLETEIFETCH SECOND IF.

CALL IN COMPLETEIFETCH SECOND IF.

CALL IN COMPLETEIFETCH SECOND IF.

CALL IN COMPLETEIFETCH SECOND IF.

CALL IN COMPLETEIFETCH SECOND IF.

CALL IN COMPLETE DATA ACESSS MAIN IF.

CALL IN COMPLETEIFETCH SECOND IF.

CALL IN COMPLETEIFETCH SECOND IF.

CALL IN COMPLETEIFETCH SECOND IF.

CALL IN COMPLETEIFETCH SECOND IF.

CALL IN COMPLETEIFETCH SECOND IF.

CALL IN COMPLETE DATA ACESSS MAIN IF.

CALL IN COMPLETEIFETCH SECOND IF.

CALL IN COMPLETEIFETCH SECOND IF.

CALL IN COMPLETEIFETCH SECOND IF.

CALL IN COMPLETEIFETCH SECOND IF.

CALL IN COMPLETEIFETCH SECOND IF.

CALL IN COMPLETE DATA ACESSS MAIN IF.

CALL IN COMPLETEIFETCH SECOND IF.

CALL IN COMPLETEIFETCH SECOND IF.

CALL IN COMPLETEIFETCH SECOND IF.

CALL IN COMPLETEIFETCH SECOND IF.

CALL IN COMPLETEIFETCH SECOND IF.

CALL IN COMPLETE DATA ACESSS MAIN IF.

CALL IN COMPLETEIFETCH SECOND IF.

CALL IN COMPLETEIFETCH SECOND IF.

CALL IN COMPLETEIFETCH SECOND IF.

CALL IN COMPLETEIFETCH SECOND IF.

CALL IN COMPLETEIFETCH SECOND IF.

CALL IN COMPLETE DATA ACESSS MAIN IF.

CALL IN COMPLETEIFETCH SECOND IF.

CALL IN COMPLETEIFETCH SECOND IF.

CALL IN COMPLETEIFETCH SECOND IF.

CALL IN COMPLETEIFETCH SECOND IF.

CALL IN COMPLETEIFETCH SECOND IF.

CALL IN COMPLETE DATA ACESSS MAIN IF.

CALL IN COMPLETEIFETCH SECOND IF.

CALL IN COMPLETEIFETCH SECOND IF.

CALL IN COMPLETEIFETCH SECOND IF.

CALL IN COMPLETEIFETCH SECOND IF.

CALL IN COMPLETEIFETCH SECOND IF.

CALL IN COMPLETE DATA ACESSS MAIN IF.

CALL IN COMPLETEIFETCH SECOND IF.

CALL IN COMPLETEIFETCH SECOND IF.

CALL IN COMPLETEIFETCH SECOND IF.

CALL IN COMPLETEIFETCH SECOND IF.

CALL IN COMPLETEIFETCH SECOND IF.

CALL IN COMPLETE DATA ACESSS MAIN IF.

CALL IN COMPLETEIFETCH SECOND IF.

CALL IN COMPLETEIFETCH SECOND IF.

CALL IN COMPLETEIFETCH SECOND IF.

CALL IN COMPLETEIFETCH SECOND IF.

CALL IN COMPLETEIFETCH SECOND IF.

CALL IN COMPLETE DATA ACESSS MAIN IF.

CALL IN COMPLETEIFETCH SECOND IF.

CALL IN COMPLETEIFETCH SECOND IF.

CALL IN COMPLETEIFETCH SECOND IF.

CALL IN COMPLETEIFETCH SECOND IF.

CALL IN COMPLETEIFETCH SECOND IF.

CALL IN COMPLETE DATA ACESSS MAIN IF.

CALL IN COMPLETEIFETCH SECOND IF.

CALL IN COMPLETEIFETCH SECOND IF.

CALL IN COMPLETEIFETCH SECOND IF.

CALL IN COMPLETEIFETCH SECOND IF.

CALL IN COMPLETEIFETCH SECOND IF.

CALL IN COMPLETE DATA ACESSS MAIN IF.

CALL IN COMPLETEIFETCH SECOND IF.

CALL IN COMPLETEIFETCH SECOND IF.

CALL IN COMPLETEIFETCH SECOND IF.

CALL IN COMPLETEIFETCH SECOND IF.

CALL IN COMPLETEIFETCH SECOND IF.

CALL IN COMPLETE DATA ACESSS MAIN IF.

CALL IN COMPLETEIFETCH SECOND IF.

CALL IN COMPLETEIFETCH SECOND IF.

CALL IN COMPLETEIFETCH SECOND IF.

CALL IN COMPLETEIFETCH SECOND IF.

CALL IN COMPLETEIFETCH SECOND IF.

CALL IN COMPLETE DATA ACESSS MAIN IF.

CALL IN COMPLETEIFETCH SECOND IF.

CALL IN COMPLETEIFETCH SECOND IF.

CALL IN COMPLETEIFETCH SECOND IF.

CALL IN COMPLETEIFETCH SECOND IF.

CALL IN COMPLETEIFETCH SECOND IF.

CALL IN COMPLETE DATA ACESSS MAIN IF.

CALL IN COMPLETEIFETCH SECOND IF.

CALL IN COMPLETEIFETCH SECOND IF.

CALL IN COMPLETEIFETCH SECOND IF.

CALL IN COMPLETEIFETCH SECOND IF.

CALL IN COMPLETEIFETCH SECOND IF.

CALL IN COMPLETE DATA ACESSS MAIN IF.

CALL IN COMPLETEIFETCH SECOND IF.

CALL IN COMPLETEIFETCH SECOND IF.

CALL IN COMPLETEIFETCH SECOND IF.

CALL IN COMPLETEIFETCH SECOND IF.

CALL IN COMPLETEIFETCH SECOND IF.

CALL IN COMPLETE DATA ACESSS MAIN IF.

CALL IN COMPLETEIFETCH SECOND IF.

CALL IN COMPLETEIFETCH SECOND IF.

CALL IN COMPLETEIFETCH SECOND IF.

CALL IN COMPLETEIFETCH SECOND IF.

CALL IN COMPLETEIFETCH SECOND IF.

CALL IN COMPLETE DATA ACESSS MAIN IF.

CALL IN COMPLETEIFETCH SECOND IF.

CALL IN COMPLETEIFETCH SECOND IF.

CALL IN COMPLETEIFETCH SECOND IF.

CALL IN COMPLETEIFETCH SECOND IF.

CALL IN COMPLETEIFETCH SECOND IF.

CALL IN COMPLETEIFETCH SECOND IF.

CALL IN COMPLETEIFETCH SECOND IF.

CALL IN COMPLETEIFETCH SECOND IF.

CALL IN COMPLETEIFETCH SECOND IF.

CALL IN COMPLETEIFETCH SECOND IF.

CALL IN COMPLETEIFETCH SECOND IF.

CALL IN COMPLETEIFETCH SECOND IF.

CALL IN COMPLETEIFETCH SECOND IF.

CALL IN COMPLETE DATA ACESSS MAIN IF.

CALL IN COMPLETE DATA ACESSS MAIN IF.

CALL IN COMPLETEIFETCH SECOND IF.

CALL IN COMPLETEIFETCH SECOND IF.

CALL IN COMPLETEIFETCH SECOND IF.

CALL IN COMPLETEIFETCH SECOND IF.

CALL IN COMPLETE DATA ACESSS MAIN IF.

CALL IN COMPLETE DATA ACESSS MAIN IF.

CALL IN COMPLETE DATA ACESSS MAIN IF.

CALL IN COMPLETEIFETCH SECOND IF.

CALL IN COMPLETEIFETCH SECOND IF.

CALL IN COMPLETEIFETCH SECOND IF.

CALL IN COMPLETEIFETCH SECOND IF.

CALL IN COMPLETEIFETCH SECOND IF.

CALL IN COMPLETEIFETCH SECOND IF.

CALL IN COMPLETEIFETCH SECOND IF.

CALL IN COMPLETEIFETCH SECOND IF.

CALL IN COMPLETEIFETCH SECOND IF.

CALL IN COMPLETE DATA ACESSS MAIN IF.

CALL IN COMPLETE DATA ACESSS MAIN IF.

CALL IN COMPLETE DATA ACESSS MAIN IF.

CALL IN COMPLETE DATA ACESSS MAIN IF.

CALL IN COMPLETEIFETCH SECOND IF.

CALL IN COMPLETEIFETCH SECOND IF.

CALL IN COMPLETEIFETCH SECOND IF.

CALL IN COMPLETE DATA ACESSS MAIN IF.

CALL IN COMPLETE DATA ACESSS MAIN IF.

CALL IN COMPLETE DATA ACESSS MAIN IF.

CALL IN COMPLETE DATA ACESSS MAIN IF.

CALL IN COMPLETE DATA ACESSS MAIN IF.

CALL IN COMPLETE DATA ACESSS MAIN IF.

CALL IN COMPLETE DATA ACESSS MAIN IF.

CALL IN COMPLETE DATA ACESSS MAIN IF.

CALL IN COMPLETEIFETCH SECOND IF.

CALL IN COMPLETEIFETCH SECOND IF.

CALL IN COMPLETEIFETCH SECOND IF.

CALL IN COMPLETEIFETCH SECOND IF.

CALL IN COMPLETE DATA ACESSS MAIN IF.

CALL IN COMPLETE DATA ACESSS MAIN IF.

CALL IN COMPLETE DATA ACESSS MAIN IF.

CALL IN COMPLETE DATA ACESSS MAIN IF.

CALL IN COMPLETE DATA ACESSS MAIN IF.

CALL IN COMPLETE DATA ACESSS MAIN IF.

CALL IN COMPLETE DATA ACESSS MAIN IF.

CALL IN COMPLETE DATA ACESSS MAIN IF.

CALL IN COMPLETEIFETCH SECOND IF.

CALL IN COMPLETEIFETCH SECOND IF.

CALL IN COMPLETEIFETCH SECOND IF.

CALL IN COMPLETEIFETCH SECOND IF.

CALL IN COMPLETEIFETCH SECOND IF.

CALL IN COMPLETE DATA ACESSS MAIN IF.

CALL IN COMPLETEIFETCH SECOND IF.

CALL IN COMPLETE DATA ACESSS MAIN IF.

CALL IN COMPLETEIFETCH SECOND IF.

CALL IN COMPLETEIFETCH SECOND IF.

CALL IN COMPLETE DATA ACESSS MAIN IF.

CALL IN COMPLETEIFETCH SECOND IF.

CALL IN COMPLETE DATA ACESSS MAIN IF.

CALL IN COMPLETEIFETCH SECOND IF.

CALL IN COMPLETEIFETCH SECOND IF.

CALL IN COMPLETE DATA ACESSS MAIN IF.

CALL IN COMPLETE DATA ACESSS MAIN IF.

CALL IN COMPLETE DATA ACESSS MAIN IF.

CALL IN COMPLETE DATA ACESSS MAIN IF.

CALL IN COMPLETEIFETCH SECOND IF.

CALL IN COMPLETEIFETCH SECOND IF.

CALL IN COMPLETEIFETCH SECOND IF.

CALL IN COMPLETEIFETCH MAIN IF.

CALL IN COMPLETEIFETCH SECOND IF.

CALL IN COMPLETE DATA ACESSS MAIN IF.

CALL IN COMPLETEIFETCH SECOND IF.

CALL IN COMPLETE DATA ACESSS MAIN IF.

CALL IN COMPLETEIFETCH MAIN IF.

CALL IN COMPLETEIFETCH SECOND IF.

CALL IN COMPLETE DATA ACESSS MAIN IF.

CALL IN COMPLETEIFETCH SECOND IF.

CALL IN COMPLETE DATA ACESSS MAIN IF.

CALL IN COMPLETEIFETCH SECOND IF.

CALL IN COMPLETE DATA ACESSS MAIN IF.

CALL IN COMPLETE DATA ACESSS MAIN IF.

CALL IN COMPLETE DATA ACESSS MAIN IF.

CALL IN COMPLETEIFETCH SECOND IF.

CALL IN COMPLETEIFETCH SECOND IF.

CALL IN COMPLETEIFETCH SECOND IF.

CALL IN COMPLETEIFETCH SECOND IF.

CALL IN COMPLETE DATA ACESSS MAIN IF.

CALL IN COMPLETE DATA ACESSS MAIN IF.

CALL IN COMPLETEIFETCH SECOND IF.

CALL IN COMPLETEIFETCH SECOND IF.

CALL IN COMPLETEIFETCH SECOND IF.

CALL IN COMPLETE DATA ACESSS MAIN IF.

CALL IN COMPLETEIFETCH SECOND IF.

CALL IN COMPLETEIFETCH SECOND IF.

CALL IN COMPLETEIFETCH SECOND IF.

CALL IN COMPLETEIFETCH SECOND IF.

CALL IN COMPLETEIFETCH SECOND IF.

CALL IN COMPLETE DATA ACESSS MAIN IF.

CALL IN COMPLETE DATA ACESSS MAIN IF.

CALL IN COMPLETE DATA ACESSS MAIN IF.

CALL IN COMPLETE DATA ACESSS MAIN IF.

CALL IN COMPLETE DATA ACESSS MAIN IF.

CALL IN COMPLETE DATA ACESSS MAIN IF.

CALL IN COMPLETEIFETCH SECOND IF.

CALL IN COMPLETEIFETCH SECOND IF.

CALL IN COMPLETEIFETCH SECOND IF.

CALL IN COMPLETEIFETCH SECOND IF.

CALL IN COMPLETE DATA ACESSS MAIN IF.

CALL IN COMPLETE DATA ACESSS MAIN IF.

CALL IN COMPLETE DATA ACESSS MAIN IF.

CALL IN COMPLETEIFETCH SECOND IF.

CALL IN COMPLETEIFETCH SECOND IF.

CALL IN COMPLETEIFETCH SECOND IF.

CALL IN COMPLETEIFETCH MAIN IF.

CALL IN COMPLETEIFETCH MAIN IF.

CALL IN COMPLETEIFETCH SECOND IF.

CALL IN COMPLETEIFETCH SECOND IF.

CALL IN COMPLETEIFETCH SECOND IF.

CALL IN COMPLETE DATA ACESSS MAIN IF.

CALL IN COMPLETEIFETCH SECOND IF.

CALL IN COMPLETEIFETCH SECOND IF.

CALL IN COMPLETEIFETCH MAIN IF.

CALL IN COMPLETE DATA ACESSS MAIN IF.

CALL IN COMPLETE DATA ACESSS MAIN IF.

CALL IN COMPLETEIFETCH SECOND IF.

CALL IN COMPLETE DATA ACESSS MAIN IF.

CALL IN COMPLETEIFETCH SECOND IF.

CALL IN COMPLETE DATA ACESSS MAIN IF.

CALL IN COMPLETE DATA ACESSS MAIN IF.

CALL IN COMPLETE DATA ACESSS MAIN IF.

CALL IN COMPLETE DATA ACESSS MAIN IF.

CALL IN COMPLETEIFETCH SECOND IF.

CALL IN COMPLETEIFETCH SECOND IF.

CALL IN COMPLETEIFETCH SECOND IF.

CALL IN COMPLETEIFETCH SECOND IF.

CALL IN COMPLETEIFETCH SECOND IF.

CALL IN COMPLETEIFETCH SECOND IF.

CALL IN COMPLETEIFETCH SECOND IF.

CALL IN COMPLETE DATA ACESSS MAIN IF.

CALL IN COMPLETEIFETCH SECOND IF.

CALL IN COMPLETEIFETCH SECOND IF.

CALL IN COMPLETE DATA ACESSS MAIN IF.

CALL IN COMPLETEIFETCH SECOND IF.

CALL IN COMPLETEIFETCH SECOND IF.

CALL IN COMPLETE DATA ACESSS MAIN IF.

CALL IN COMPLETEIFETCH SECOND IF.

CALL IN COMPLETEIFETCH SECOND IF.

CALL IN COMPLETEIFETCH SECOND IF.

CALL IN COMPLETE DATA ACESSS MAIN IF.

CALL IN COMPLETE DATA ACESSS MAIN IF.

CALL IN COMPLETE DATA ACESSS MAIN IF.

CALL IN COMPLETEIFETCH SECOND IF.

CALL IN COMPLETEIFETCH SECOND IF.

CALL IN COMPLETEIFETCH SECOND IF.

CALL IN COMPLETEIFETCH SECOND IF.

CALL IN COMPLETEIFETCH SECOND IF.

CALL IN COMPLETEIFETCH SECOND IF.

CALL IN COMPLETE DATA ACESSS MAIN IF.

CALL IN COMPLETE DATA ACESSS MAIN IF.

CALL IN COMPLETEIFETCH SECOND IF.

CALL IN COMPLETEIFETCH SECOND IF.

CALL IN COMPLETEIFETCH SECOND IF.

CALL IN COMPLETEIFETCH SECOND IF.

CALL IN COMPLETE DATA ACESSS MAIN IF.

CALL IN COMPLETE DATA ACESSS MAIN IF.

CALL IN COMPLETEIFETCH SECOND IF.

CALL IN COMPLETEIFETCH SECOND IF.

CALL IN COMPLETEIFETCH SECOND IF.

CALL IN COMPLETEIFETCH SECOND IF.

CALL IN COMPLETEIFETCH SECOND IF.

CALL IN COMPLETE DATA ACESSS MAIN IF.

CALL IN COMPLETE DATA ACESSS MAIN IF.

CALL IN COMPLETE DATA ACESSS MAIN IF.

CALL IN COMPLETE DATA ACESSS MAIN IF.

CALL IN COMPLETE DATA ACESSS MAIN IF.

CALL IN COMPLETE DATA ACESSS MAIN IF.

CALL IN COMPLETE DATA ACESSS MAIN IF.

CALL IN COMPLETE DATA ACESSS MAIN IF.

CALL IN COMPLETE DATA ACESSS MAIN IF.

CALL IN COMPLETEIFETCH SECOND IF.

CALL IN COMPLETE DATA ACESSS MAIN IF.

CALL IN COMPLETEIFETCH SECOND IF.

CALL IN COMPLETEIFETCH SECOND IF.

CALL IN COMPLETEIFETCH SECOND IF.

CALL IN COMPLETEIFETCH SECOND IF.

CALL IN COMPLETEIFETCH SECOND IF.

CALL IN COMPLETEIFETCH SECOND IF.

CALL IN COMPLETE DATA ACESSS MAIN IF.

CALL IN COMPLETE DATA ACESSS MAIN IF.

CALL IN COMPLETEIFETCH SECOND IF.

CALL IN COMPLETEIFETCH SECOND IF.

CALL IN COMPLETE DATA ACESSS MAIN IF.

CALL IN COMPLETEIFETCH SECOND IF.

CALL IN COMPLETE DATA ACESSS MAIN IF.

CALL IN COMPLETEIFETCH SECOND IF.

CALL IN COMPLETEIFETCH SECOND IF.

CALL IN COMPLETEIFETCH SECOND IF.

CALL IN COMPLETEIFETCH SECOND IF.

CALL IN COMPLETE DATA ACESSS MAIN IF.

CALL IN COMPLETE DATA ACESSS MAIN IF.

CALL IN COMPLETE DATA ACESSS MAIN IF.

CALL IN COMPLETE DATA ACESSS MAIN IF.

CALL IN COMPLETE DATA ACESSS MAIN IF.

CALL IN COMPLETE DATA ACESSS MAIN IF.

CALL IN COMPLETEIFETCH SECOND IF.

CALL IN COMPLETEIFETCH SECOND IF.

CALL IN COMPLETEIFETCH SECOND IF.

CALL IN COMPLETEIFETCH SECOND IF.

CALL IN COMPLETEIFETCH SECOND IF.

CALL IN COMPLETEIFETCH SECOND IF.

CALL IN COMPLETEIFETCH SECOND IF.

CALL IN COMPLETE DATA ACESSS MAIN IF.

CALL IN COMPLETE DATA ACESSS MAIN IF.

CALL IN COMPLETEIFETCH SECOND IF.

CALL IN COMPLETEIFETCH SECOND IF.

CALL IN COMPLETEIFETCH SECOND IF.

CALL IN COMPLETEIFETCH SECOND IF.

CALL IN COMPLETEIFETCH SECOND IF.

CALL IN COMPLETE DATA ACESSS MAIN IF.

CALL IN COMPLETE DATA ACESSS MAIN IF.

CALL IN COMPLETEIFETCH SECOND IF.

CALL IN COMPLETE DATA ACESSS MAIN IF.

CALL IN COMPLETEIFETCH SECOND IF.

CALL IN COMPLETEIFETCH SECOND IF.

CALL IN COMPLETEIFETCH SECOND IF.

CALL IN COMPLETE DATA ACESSS MAIN IF.

CALL IN COMPLETE DATA ACESSS MAIN IF.

CALL IN COMPLETE DATA ACESSS MAIN IF.

CALL IN COMPLETE DATA ACESSS MAIN IF.

CALL IN COMPLETE DATA ACESSS MAIN IF.

CALL IN COMPLETEIFETCH SECOND IF.

CALL IN COMPLETEIFETCH SECOND IF.

CALL IN COMPLETEIFETCH SECOND IF.

CALL IN COMPLETE DATA ACESSS MAIN IF.

CALL IN COMPLETE DATA ACESSS MAIN IF.

CALL IN COMPLETE DATA ACESSS MAIN IF.

CALL IN COMPLETE DATA ACESSS MAIN IF.

CALL IN COMPLETE DATA ACESSS MAIN IF.

CALL IN COMPLETE DATA ACESSS MAIN IF.

CALL IN COMPLETEIFETCH SECOND IF.

CALL IN COMPLETEIFETCH SECOND IF.

CALL IN COMPLETEIFETCH SECOND IF.

CALL IN COMPLETEIFETCH SECOND IF.

CALL IN COMPLETEIFETCH SECOND IF.

CALL IN COMPLETEIFETCH SECOND IF.

CALL IN COMPLETEIFETCH SECOND IF.

CALL IN COMPLETEIFETCH SECOND IF.

CALL IN COMPLETE DATA ACESSS MAIMain thread calling join w/ 1st thread (id
N IF.

CALL IN COMPLETEIFETCH SECOND IF.

CALL IN COMPLETEIFETCH SECOND IF.

CALL IN COMPLETEIFETCH SECOND IF.

CALL IN COMPLETEIFETCH SECOND IF.

CALL IN COMPLETEIFETCH SECOND IF.

CALL IN COMPLETEIFETCH SECOND IF.

CALL IN COMPLETEIFETCH SECOND IF.

CALL IN COMPLETE DATA ACESSS MAIN IF.

CALL IN COMPLETEIFETCH SECOND IF.

CALL IN COMPLETEIFETCH SECOND IF.

CALL IN COMPLETEIFETCH SECOND IF.

CALL IN COMPLETEIFETCH SECOND IF.

CALL IN COMPLETEIFETCH SECOND IF.

CALL IN COMPLETEIFETCH SECOND IF.

CALL IN COMPLETE DATA ACESSS MAIN IF.

CALL IN COMPLETEIFETCH SECOND IF.

CALL IN COMPLETE DATA ACESSS MAIN IF.

CALL IN COMPLETEIFETCH SECOND IF.

CALL IN COMPLETEIFETCH SECOND IF.

CALL IN COMPLETEIFETCH SECOND IF.

CALL IN COMPLETEIFETCH SECOND IF.

CALL IN COMPLETEIFETCH SECOND IF.

CALL IN COMPLETEIFETCH SECOND IF.

CALL IN COMPLETEIFETCH SECOND IF.

CALL IN COMPLETEIFETCH SECOND IF.

CALL IN COMPLETEIFETCH SECOND IF.

CALL IN COMPLETEIFETCH SECOND IF.

CALL IN COMPLETEIFETCH SECOND IF.

CALL IN COMPLETEIFETCH SECOND IF.

CALL IN COMPLETEIFETCH SECOND IF.

CALL IN COMPLETEIFETCH SECOND IF.

CALL IN COMPLETE DATA ACESSS MAIN IF.

CALL IN COMPLETE DATA ACESSS MAIN IF.

CALL IN COMPLETE DATA ACESSS MAIN IF.

CALL IN COMPLETE DATA ACESSS MAIN IF.

CALL IN COMPLETE DATA ACESSS MAIN IF.

CALL IN COMPLETE DATA ACESSS MAIN IF.

CALL IN COMPLETEIFETCH SECOND IF.

CALL IN COMPLETEIFETCH SECOND IF.

CALL IN COMPLETEIFETCH SECOND IF.

CALL IN COMPLETEIFETCH SECOND IF.

CALL IN COMPLETE DATA ACESSS MAIN IF.

CALL IN COMPLETE DATA ACESSS MAIN IF.

CALL IN COMPLETE DATA ACESSS MAIN IF.

CALL IN COMPLETE DATA ACESSS MAIN IF.

CALL IN COMPLETEIFETCH SECOND IF.

CALL IN COMPLETEIFETCH SECOND IF.

CALL IN COMPLETEIFETCH SECOND IF.

CALL IN COMPLETEIFETCH SECOND IF.

CALL IN COMPLETEIFETCH SECOND IF.

CALL IN COMPLETEIFETCH SECOND IF.

CALL IN COMPLETEIFETCH SECOND IF.

CALL IN COMPLETEIFETCH SECOND IF.

CALL IN COMPLETEIFETCH SECOND IF.

CALL IN COMPLETEIFETCH SECOND IF.

CALL IN COMPLETE DATA ACESSS MAIN IF.

CALL IN COMPLETE DATA ACESSS MAIN IF.

CALL IN COMPLETE DATA ACESSS MAIN IF.

CALL IN COMPLETE DATA ACESSS MAIN IF.

CALL IN COMPLETE DATA ACESSS MAIN IF.

CALL IN COMPLETE DATA ACESSS MAIN IF.

CALL IN COMPLETEIFETCH SECOND IF.

CALL IN COMPLETEIFETCH SECOND IF.

CALL IN COMPLETEIFETCH SECOND IF.

CALL IN COMPLETEIFETCH SECOND IF.

CALL IN COMPLETEIFETCH SECOND IF.

CALL IN COMPLETEIFETCH SECOND IF.

CALL IN COMPLETEIFETCH SECOND IF.

CALL IN COMPLETEIFETCH SECOND IF.

CALL IN COMPLETE DATA ACESSS MAIN IF.

CALL IN COMPLETEIFETCH SECOND IF.

CALL IN COMPLETEIFETCH SECOND IF.

CALL IN COMPLETEIFETCH SECOND IF.

CALL IN COMPLETEIFETCH SECOND IF.

CALL IN COMPLETEIFETCH SECOND IF.

CALL IN COMPLETE DATA ACESSS MAIN IF.

CALL IN COMPLETEIFETCH SECOND IF.

CALL IN COMPLETEIFETCH SECOND IF.

CALL IN COMPLETEIFETCH SECOND IF.

CALL IN COMPLETEIFETCH SECOND IF.

CALL IN COMPLETEIFETCH SECOND IF.

CALL IN COMPLETEIFETCH SECOND IF.

CALL IN COMPLETE DATA ACESSS MAIN IF.

CALL IN COMPLETEIFETCH SECOND IF.

CALL IN COMPLETE DATA ACESSS MAIN IF.

CALL IN COMPLETEIFETCH SECOND IF.

CALL IN COMPLETEIFETCH SECOND IF.

CALL IN COMPLETEIFETCH SECOND IF.

CALL IN COMPLETEIFETCH SECOND IF.

CALL IN COMPLETEIFETCH SECOND IF.

CALL IN COMPLETEIFETCH SECOND IF.

CALL IN COMPLETEIFETCH SECOND IF.

CALL IN COMPLETEIFETCH SECOND IF.

CALL IN COMPLETEIFETCH SECOND IF.

CALL IN COMPLETEIFETCH SECOND IF.

CALL IN COMPLETEIFETCH SECOND IF.

CALL IN COMPLETEIFETCH SECOND IF.

CALL IN COMPLETE DATA ACESSS MAIN IF.

CALL IN COMPLETE DATA ACESSS MAIN IF.

CALL IN COMPLETE DATA ACESSS MAIN IF.

CALL IN COMPLETE DATA ACESSS MAIN IF.

CALL IN COMPLETE DATA ACESSS MAIN IF.

CALL IN COMPLETE DATA ACESSS MAIN IF.

CALL IN COMPLETEIFETCH SECOND IF.

CALL IN COMPLETEIFETCH SECOND IF.

CALL IN COMPLETEIFETCH SECOND IF.

CALL IN COMPLETE DATA ACESSS MAIN IF.

CALL IN COMPLETEIFETCH SECOND IF.

CALL IN COMPLETE DATA ACESSS MAIN IF.

CALL IN COMPLETEIFETCH SECOND IF.

CALL IN COMPLETEIFETCH SECOND IF.

CALL IN COMPLETEIFETCH SECOND IF.

CALL IN COMPLETEIFETCH SECOND IF.

CALL IN COMPLETEIFETCH SECOND IF.

CALL IN COMPLETEIFETCH SECOND IF.

CALL IN COMPLETEIFETCH SECOND IF.

CALL IN COMPLETEIFETCH SECOND IF.

CALL IN COMPLETEIFETCH SECOND IF.

CALL IN COMPLETEIFETCH SECOND IF.

CALL IN COMPLETEIFETCH SECOND IF.

CALL IN COMPLETEIFETCH SECOND IF.

CALL IN COMPLETEIFETCH SECOND IF.

CALL IN COMPLETE DATA ACESSS MAIN IF.

CALL IN COMPLETE DATA ACESSS MAIN IF.

CALL IN COMPLETEIFETCH SECOND IF.

CALL IN COMPLETEIFETCH SECOND IF.

CALL IN COMPLETEIFETCH SECOND IF.

CALL IN COMPLETE DATA ACESSS MAIN IF.

CALL IN COMPLETE DATA ACESSS MAIN IF.

CALL IN COMPLETE DATA ACESSS MAIN IF.

CALL IN COMPLETE DATA ACESSS MAIN IF.

CALL IN COMPLETE DATA ACESSS MAIN IF.

CALL IN COMPLETE DATA ACESSS MAIN IF.

CALL IN COMPLETEIFETCH SECOND IF.

CALL IN COMPLETEIFETCH SECOND IF.

CALL IN COMPLETEIFETCH SECOND IF.

CALL IN COMPLETE DATA ACESSS MAIN IF.

CALL IN COMPLETEIFETCH SECOND IF.

CALL IN COMPLETEIFETCH SECOND IF.

CALL IN COMPLETE DATA ACESSS MAIN IF.

CALL IN COMPLETE DATA ACESSS MAIN IF.

CALL IN COMPLETEIFETCH SECOND IF.

CALL IN COMPLETE DATA ACESSS MAIN IF.

CALL IN COMPLETE DATA ACESSS MAIN IF.

CALL IN COMPLETE DATA ACESSS MAIN IF.

CALL IN COMPLETE DATA ACESSS MAIN IF.

CALL IN COMPLETE DATA ACESSS MAIN IF.

CALL IN COMPLETEIFETCH SECOND IF.

CALL IN COMPLETE DATA ACESSS MAIN IF.

CALL IN COMPLETE DATA ACESSS MAIN IF.

CALL IN COMPLETEIFETCH SECOND IF.

CALL IN COMPLETEIFETCH SECOND IF.

CALL IN COMPLETEIFETCH SECOND IF.

CALL IN COMPLETEIFETCH SECOND IF.

CALL IN COMPLETE DATA ACESSS MAIN IF.

CALL IN COMPLETEIFETCH SECOND IF.

CALL IN COMPLETEIFETCH SECOND IF.

CALL IN COMPLETE DATA ACESSS MAIN IF.

CALL IN COMPLETE DATA ACESSS MAIN IF.

CALL IN COMPLETE DATA ACESSS MAIN IF.

CALL IN COMPLETE DATA ACESSS MAIN IF.

CALL IN COMPLETE DATA ACESSS MAIN IF.

CALL IN COMPLETE DATA ACESSS MAIN IF.

CALL IN COMPLETE DATA ACESSS MAIN IF.

CALL IN COMPLETE DATA ACESSS MAIN IF.

CALL IN COMPLETE DATA ACESSS MAIN IF.

CALL IN COMPLETEIFETCH SECOND IF.

CALL IN COMPLETEIFETCH SECOND IF.

CALL IN COMPLETEIFETCH SECOND IF.

CALL IN COMPLETEIFETCH SECOND IF.

CALL IN COMPLETEIFETCH SECOND IF.

CALL IN COMPLETE DATA ACESSS MAIN IF.

CALL IN COMPLETE DATA ACESSS MAIN IF.

CALL IN COMPLETEIFETCH SECOND IF.

CALL IN COMPLETEIFETCH SECOND IF.

CALL IN COMPLETEIFETCH SECOND IF.

CALL IN COMPLETEIFETCH SECOND IF.

CALL IN COMPLETEIFETCH SECOND IF.

CALL IN COMPLETEIFETCH SECOND IF.

CALL IN COMPLETE DATA ACESSS MAIN IF.

CALL IN COMPLETE DATA ACESSS MAIN IF.

CALL IN COMPLETE DATA ACESSS MAIN IF.

CALL IN COMPLETE DATA ACESSS MAIN IF.

CALL IN COMPLETEIFETCH SECOND IF.

CALL IN COMPLETEIFETCH SECOND IF.

CALL IN COMPLETEIFETCH SECOND IF.

CALL IN COMPLETEIFETCH SECOND IF.

CALL IN COMPLETEIFETCH SECOND IF.

CALL IN COMPLETEIFETCH SECOND IF.

CALL IN COMPLETE DATA ACESSS MAIN IF.

CALL IN COMPLETEIFETCH SECOND IF.

CALL IN COMPLETEIFETCH SECOND IF.

CALL IN COMPLETE DATA ACESSS MAIN IF.

CALL IN COMPLETE DATA ACESSS MAIN IF.

CALL IN COMPLETEIFETCH SECOND IF.

CALL IN COMPLETEIFETCH SECOND IF.

CALL IN COMPLETE DATA ACESSS MAIN IF.

CALL IN COMPLETEIFETCH SECOND IF.

CALL IN COMPLETEIFETCH SECOND IF.

CALL IN COMPLETEIFETCH SECOND IF.

CALL IN COMPLETE DATA ACESSS MAIN IF.

CALL IN COMPLETE DATA ACESSS MAIN IF.

CALL IN COMPLETE DATA ACESSS MAIN IF.

CALL IN COMPLETE DATA ACESSS MAIN IF.

CALL IN COMPLETE DATA ACESSS MAIN IF.

CALL IN COMPLETE DATA ACESSS MAIN IF.

CALL IN COMPLETE DATA ACESSS MAIN IF.

CALL IN COMPLETE DATA ACESSS MAIN IF.

CALL IN COMPLETEIFETCH SECOND IF.

CALL IN COMPLETEIFETCH SECOND IF.

CALL IN COMPLETE DATA ACESSS MAIN IF.

CALL IN COMPLETE DATA ACESSS MAIN IF.

CALL IN COMPLETEIFETCH SECOND IF.

CALL IN COMPLETEIFETCH SECOND IF.

CALL IN COMPLETEIFETCH SECOND IF.

CALL IN COMPLETE DATA ACESSS MAIN IF.

CALL IN COMPLETE DATA ACESSS MAIN IF.

CALL IN COMPLETE DATA ACESSS MAIN IF.

CALL IN COMPLETE DATA ACESSS MAIN IF.

CALL IN COMPLETEIFETCH SECOND IF.

CALL IN COMPLETE DATA ACESSS MAIN IF.

CALL IN COMPLETEIFETCH SECOND IF.

CALL IN COMPLETE DATA ACESSS MAIN IF.

CALL IN COMPLETEIFETCH SECOND IF.

CALL IN COMPLETEIFETCH SECOND IF.

CALL IN COMPLETE DATA ACESSS MAIN IF.

CALL IN COMPLETE DATA ACESSS MAIN IF.

CALL IN COMPLETEIFETCH SECOND IF.

CALL IN COMPLETE DATA ACESSS MAIN IF.

CALL IN COMPLETEIFETCH SECOND IF.

CALL IN COMPLETEIFETCH SECOND IF.

CALL IN COMPLETE DATA ACESSS MAIN IF.

CALL IN COMPLETE DATA ACESSS MAIN IF.

CALL IN COMPLETE DATA ACESSS MAIN IF.

CALL IN COMPLETE DATA ACESSS MAIN IF.

CALL IN COMPLETE DATA ACESSS MAIN IF.

CALL IN COMPLETE DATA ACESSS MAIN IF.

CALL IN COMPLETE DATA ACESSS MAIN IF.

CALL IN COMPLETE DATA ACESSS MAIN IF.

CALL IN COMPLETE DATA ACESSS MAIN IF.

CALL IN COMPLETEIFETCH SECOND IF.

CALL IN COMPLETEIFETCH SECOND IF.

CALL IN COMPLETEIFETCH SECOND IF.

CALL IN COMPLETEIFETCH SECOND IF.

CALL IN COMPLETE DATA ACESSS MAIN IF.

CALL IN COMPLETE DATA ACESSS MAIN IF.

CALL IN COMPLETE DATA ACESSS MAIN IF.

CALL IN COMPLETEIFETCH SECOND IF.

CALL IN COMPLETEIFETCH SECOND IF.

CALL IN COMPLETEIFETCH SECOND IF.

CALL IN COMPLETEIFETCH SECOND IF.

CALL IN COMPLETEIFETCH SECOND IF.

CALL IN COMPLETEIFETCH SECOND IF.

CALL IN COMPLETE DATA ACESSS MAIN IF.

CALL IN COMPLETEIFETCH SECOND IF.

CALL IN COMPLETE DATA ACESSS MAIN IF.

CALL IN COMPLETEIFETCH SECOND IF.

CALL IN COMPLETEIFETCH SECOND IF.

CALL IN COMPLETE DATA ACESSS MAIN IF.

CALL IN COMPLETEIFETCH MAIN IF.

CALL IN COMPLETEIFETCH SECOND IF.

CALL IN COMPLETEIFETCH SECOND IF.

CALL IN COMPLETEIFETCH SECOND IF.

CALL IN COMPLETE DATA ACESSS MAIN IF.

CALL IN COMPLETEIFETCH SECOND IF.

CALL IN COMPLETEIFETCH SECOND IF.

CALL IN COMPLETEIFETCH SECOND IF.

CALL IN COMPLETEIFETCH SECOND IF.

CALL IN COMPLETEIFETCH SECOND IF.

CALL IN COMPLETEIFETCH SECOND IF.

CALL IN COMPLETEIFETCH SECOND IF.

CALL IN COMPLETEIFETCH SECOND IF.

CALL IN COMPLETE DATA ACESSS MAIN IF.

CALL IN COMPLETEIFETCH SECOND IF.

CALL IN COMPLETEIFETCH SECOND IF.

CALL IN COMPLETEIFETCH SECOND IF.

CALL IN COMPLETE DATA ACESSS MAIN IF.

CALL IN COMPLETE DATA ACESSS MAIN IF.

CALL IN COMPLETE DATA ACESSS MAIN IF.

CALL IN COMPLETE DATA ACESSS MAIN IF.

CALL IN COMPLETE DATA ACESSS MAIN IF.

CALL IN COMPLETE DATA ACESSS MAIN IF.

CALL IN COMPLETEIFETCH SECOND IF.

CALL IN COMPLETEIFETCH SECOND IF.

CALL IN COMPLETEIFETCH SECOND IF.

CALL IN COMPLETEIFETCH SECOND IF.

CALL IN COMPLETEIFETCH SECOND IF.

CALL IN COMPLETEIFETCH SECOND IF.

CALL IN COMPLETEIFETCH SECOND IF.

CALL IN COMPLETEIFETCH SECOND IF.

CALL IN COMPLETE DATA ACESSS MAIN IF.

CALL IN COMPLETE DATA ACESSS MAIN IF.

CALL IN COMPLETEIFETCH SECOND IF.

CALL IN COMPLETEIFETCH SECOND IF.

CALL IN COMPLETEIFETCH SECOND IF.

CALL IN COMPLETEIFETCH SECOND IF.

CALL IN COMPLETEIFETCH SECOND IF.

CALL IN COMPLETEIFETCH SECOND IF.

CALL IN COMPLETEIFETCH SECOND IF.

CALL IN COMPLETEIFETCH SECOND IF.

CALL IN COMPLETEIFETCH SECOND IF.

CALL IN COMPLETE DATA ACESSS MAIN IF.

CALL IN COMPLETEIFETCH SECOND IF.

CALL IN COMPLETEIFETCH SECOND IF.

CALL IN COMPLETEIFETCH SECOND IF.

CALL IN COMPLETEIFETCH SECOND IF.

CALL IN COMPLETEIFETCH SECOND IF.

CALL IN COMPLETEIFETCH SECOND IF.

CALL IN COMPLETEIFETCH SECOND IF.

CALL IN COMPLETE DATA ACESSS MAIN IF.

CALL IN COMPLETE DATA ACESSS MAIN IF.

CALL IN COMPLETEIFETCH SECOND IF.

CALL IN COMPLETEIFETCH SECOND IF.

CALL IN COMPLETEIFETCH SECOND IF.

CALL IN COMPLETEIFETCH SECOND IF.

CALL IN COMPLETEIFETCH SECOND IF.

CALL IN COMPLETEIFETCH SECOND IF.

CALL IN COMPLETEIFETCH SECOND IF.

CALL IN COMPLETEIFETCH SECOND IF.

CALL IN COMPLETEIFETCH SECOND IF.

CALL IN COMPLETE DATA ACESSS MAIN IF.

CALL IN COMPLETEIFETCH SECOND IF.

CALL IN COMPLETEIFETCH SECOND IF.

CALL IN COMPLETEIFETCH SECOND IF.

CALL IN COMPLETEIFETCH SECOND IF.

CALL IN COMPLETEIFETCH SECOND IF.

CALL IN COMPLETEIFETCH SECOND IF.

CALL IN COMPLETEIFETCH SECOND IF.

CALL IN COMPLETE DATA ACESSS MAIN IF.

CALL IN COMPLETE DATA ACESSS MAIN IF.

CALL IN COMPLETEIFETCH SECOND IF.

CALL IN COMPLETEIFETCH SECOND IF.

CALL IN COMPLETEIFETCH SECOND IF.

CALL IN COMPLETEIFETCH SECOND IF.

CALL IN COMPLETEIFETCH SECOND IF.

CALL IN COMPLETEIFETCH SECOND IF.

CALL IN COMPLETEIFETCH SECOND IF.

CALL IN COMPLETEIFETCH SECOND IF.

CALL IN COMPLETEIFETCH SECOND IF.

CALL IN COMPLETE DATA ACESSS MAIN IF.

CALL IN COMPLETEIFETCH SECOND IF.

CALL IN COMPLETEIFETCH SECOND IF.

CALL IN COMPLETEIFETCH SECOND IF.

CALL IN COMPLETEIFETCH SECOND IF.

CALL IN COMPLETEIFETCH SECOND IF.

CALL IN COMPLETEIFETCH SECOND IF.

CALL IN COMPLETEIFETCH SECOND IF.

CALL IN COMPLETE DATA ACESSS MAIN IF.

CALL IN COMPLETE DATA ACESSS MAIN IF.

CALL IN COMPLETEIFETCH SECOND IF.

CALL IN COMPLETEIFETCH SECOND IF.

CALL IN COMPLETEIFETCH SECOND IF.

CALL IN COMPLETEIFETCH SECOND IF.

CALL IN COMPLETEIFETCH SECOND IF.

CALL IN COMPLETEIFETCH SECOND IF.

CALL IN COMPLETEIFETCH SECOND IF.

CALL IN COMPLETEIFETCH SECOND IF.

CALL IN COMPLETEIFETCH SECOND IF.

CALL IN COMPLETE DATA ACESSS MAIN IF.

CALL IN COMPLETEIFETCH SECOND IF.

CALL IN COMPLETEIFETCH SECOND IF.

CALL IN COMPLETEIFETCH SECOND IF.

CALL IN COMPLETEIFETCH SECOND IF.

CALL IN COMPLETEIFETCH SECOND IF.

CALL IN COMPLETEIFETCH SECOND IF.

CALL IN COMPLETEIFETCH SECOND IF.

CALL IN COMPLETE DATA ACESSS MAIN IF.

CALL IN COMPLETE DATA ACESSS MAIN IF.

CALL IN COMPLETEIFETCH SECOND IF.

CALL IN COMPLETEIFETCH SECOND IF.

CALL IN COMPLETEIFETCH SECOND IF.

CALL IN COMPLETEIFETCH SECOND IF.

CALL IN COMPLETEIFETCH SECOND IF.

CALL IN COMPLETEIFETCH SECOND IF.

CALL IN COMPLETEIFETCH SECOND IF.

CALL IN COMPLETEIFETCH SECOND IF.

CALL IN COMPLETEIFETCH SECOND IF.

CALL IN COMPLETE DATA ACESSS MAIN IF.

CALL IN COMPLETEIFETCH SECOND IF.

CALL IN COMPLETEIFETCH SECOND IF.

CALL IN COMPLETEIFETCH SECOND IF.

CALL IN COMPLETEIFETCH SECOND IF.

CALL IN COMPLETEIFETCH SECOND IF.

CALL IN COMPLETEIFETCH SECOND IF.

CALL IN COMPLETEIFETCH SECOND IF.

CALL IN COMPLETE DATA ACESSS MAIN IF.

CALL IN COMPLETE DATA ACESSS MAIN IF.

CALL IN COMPLETEIFETCH SECOND IF.

CALL IN COMPLETEIFETCH SECOND IF.

CALL IN COMPLETEIFETCH SECOND IF.

CALL IN COMPLETEIFETCH SECOND IF.

CALL IN COMPLETEIFETCH SECOND IF.

CALL IN COMPLETEIFETCH SECOND IF.

CALL IN COMPLETEIFETCH SECOND IF.

CALL IN COMPLETEIFETCH SECOND IF.

CALL IN COMPLETEIFETCH SECOND IF.

CALL IN COMPLETE DATA ACESSS MAIN IF.

CALL IN COMPLETEIFETCH SECOND IF.

CALL IN COMPLETEIFETCH SECOND IF.

CALL IN COMPLETEIFETCH SECOND IF.

CALL IN COMPLETEIFETCH SECOND IF.

CALL IN COMPLETEIFETCH SECOND IF.

CALL IN COMPLETEIFETCH SECOND IF.

CALL IN COMPLETEIFETCH SECOND IF.

CALL IN COMPLETE DATA ACESSS MAIN IF.

CALL IN COMPLETE DATA ACESSS MAIN IF.

CALL IN COMPLETEIFETCH SECOND IF.

CALL IN COMPLETEIFETCH SECOND IF.

CALL IN COMPLETEIFETCH SECOND IF.

CALL IN COMPLETEIFETCH SECOND IF.

CALL IN COMPLETEIFETCH SECOND IF.

CALL IN COMPLETEIFETCH SECOND IF.

CALL IN COMPLETEIFETCH SECOND IF.

CALL IN COMPLETEIFETCH SECOND IF.

CALL IN COMPLETEIFETCH SECOND IF.

CALL IN COMPLETE DATA ACESSS MAIN IF.

CALL IN COMPLETEIFETCH SECOND IF.

CALL IN COMPLETEIFETCH SECOND IF.

CALL IN COMPLETEIFETCH SECOND IF.

CALL IN COMPLETEIFETCH SECOND IF.

CALL IN COMPLETEIFETCH SECOND IF.

CALL IN COMPLETE DATA ACESSS MAIN IF.

CALL IN COMPLETEIFETCH SECOND IF.

CALL IN COMPLETEIFETCH SECOND IF.

CALL IN COMPLETEIFETCH SECOND IF.

CALL IN COMPLETEIFETCH MAIN IF.

CALL IN COMPLETEIFETCH MAIN IF.

CALL IN COMPLETEIFETCH MAIN IF.

CALL IN COMPLETEIFETCH MAIN IF.

CALL IN COMPLETEIFETCH MAIN IF.

CALL IN COMPLETEIFETCH MAIN IF.

CALL IN COMPLETEIFETCH SECOND IF.

CALL IN COMPLETEIFETCH SECOND IF.

CALL IN COMPLETEIFETCH SECOND IF.

CALL IN COMPLETEIFETCH SECOND IF.

CALL IN COMPLETEIFETCH MAIN IF.

CALL IN COMPLETEIFETCH MAIN IF.

CALL IN COMPLETEIFETCH MAIN IF.

CALL IN COMPLETEIFETCH MAIN IF.

CALL IN COMPLETEIFETCH MAIN IF.

CALL IN COMPLETEIFETCH MAIN IF.

CALL IN COMPLETEIFETCH SECOND IF.

CALL IN COMPLETEIFETCH SECOND IF.

CALL IN COMPLETE DATA ACESSS MAIN IF.

CALL IN COMPLETEIFETCH SECOND IF.

CALL IN COMPLETEIFETCH SECOND IF.

CALL IN COMPLETEIFETCH SECOND IF.

CALL IN COMPLETEIFETCH SECOND IF.

CALL IN COMPLETE DATA ACESSS MAIN IF.

CALL IN COMPLETEIFETCH SECOND IF.

CALL IN COMPLETEIFETCH SECOND IF.

CALL IN COMPLETEIFETCH SECOND IF.

CALL IN COMPLETEIFETCH SECOND IF.

CALL IN COMPLETE DATA ACESSS MAIN IF.

CALL IN COMPLETE DATA ACESSS MAIN IF.

CALL IN COMPLETE DATA ACESSS MAIN IF.

CALL IN COMPLETE DATA ACESSS MAIN IF.

CALL IN COMPLETE DATA ACESSS MAIN IF.

CALL IN COMPLETE DATA ACESSS MAIN IF.

CALL IN COMPLETEIFETCH SECOND IF.

CALL IN COMPLETEIFETCH SECOND IF.

CALL IN COMPLETEIFETCH SECOND IF.

CALL IN COMPLETE DATA ACESSS MAIN IF.

CALL IN COMPLETE DATA ACESSS MAIN IF.

CALL IN COMPLETEIFETCH MAIN IF.

CALL IN COMPLETEIFETCH SECOND IF.

CALL IN COMPLETE DATA ACESSS MAIN IF.

CALL IN COMPLETEIFETCH SECOND IF.

CALL IN COMPLETEIFETCH SECOND IF.

CALL IN COMPLETE DATA ACESSS MAIN IF.

CALL IN COMPLETE DATA ACESSS MAIN IF.

CALL IN COMPLETE DATA ACESSS MAIN IF.

CALL IN COMPLETE DATA ACESSS MAIN IF.

CALL IN COMPLETEIFETCH SECOND IF.

CALL IN COMPLETEIFETCH SECOND IF.

CALL IN COMPLETEIFETCH SECOND IF.

CALL IN COMPLETE DATA ACESSS MAIN IF.

CALL IN COMPLETEIFETCH SECOND IF.

CALL IN COMPLETEIFETCH SECOND IF.

CALL IN COMPLETEIFETCH SECOND IF.

CALL IN COMPLETEIFETCH SECOND IF.

CALL IN COMPLETEIFETCH SECOND IF.

CALL IN COMPLETE DATA ACESSS MAIN IF.

CALL IN COMPLETEIFETCH SECOND IF.

CALL IN COMPLETEIFETCH SECOND IF.

CALL IN COMPLETEIFETCH SECOND IF.

CALL IN COMPLETE DATA ACESSS MAIN IF.

CALL IN COMPLETEIFETCH SECOND IF.

CALL IN COMPLETE DATA ACESSS MAIN IF.

CALL IN COMPLETE DATA ACESSS MAIN IF.

CALL IN COMPLETE DATA ACESSS MAIN IF.

CALL IN COMPLETEIFETCH SECOND IF.

CALL IN COMPLETEIFETCH SECOND IF.

CALL IN COMPLETE DATA ACESSS MAIN IF.

CALL IN COMPLETEIFETCH SECOND IF.

CALL IN COMPLETEIFETCH SECOND IF.

CALL IN COMPLETEIFETCH SECOND IF.

CALL IN COMPLETEIFETCH SECOND IF.

CALL IN COMPLETE DATA ACESSS MAIN IF.

CALL IN COMPLETE DATA ACESSS MAIN IF.

CALL IN COMPLETE DATA ACESSS MAIN IF.

CALL IN COMPLETE DATA ACESSS MAIN IF.

CALL IN COMPLETE DATA ACESSS MAIN IF.

CALL IN COMPLETE DATA ACESSS MAIN IF.

CALL IN COMPLETEIFETCH SECOND IF.

CALL IN COMPLETEIFETCH SECOND IF.

CALL IN COMPLETEIFETCH SECOND IF.

CALL IN COMPLETE DATA ACESSS MAIN IF.

CALL IN COMPLETEIFETCH SECOND IF.

CALL IN COMPLETEIFETCH SECOND IF.

CALL IN COMPLETEIFETCH SECOND IF.

CALL IN COMPLETEIFETCH SECOND IF.

CALL IN COMPLETEIFETCH SECOND IF.

CALL IN COMPLETE DATA ACESSS MAIN IF.

CALL IN COMPLETE DATA ACESSS MAIN IF.

CALL IN COMPLETEIFETCH SECOND IF.

CALL IN COMPLETEIFETCH SECOND IF.

CALL IN COMPLETEIFETCH SECOND IF.

CALL IN COMPLETEIFETCH SECOND IF.

CALL IN COMPLETEIFETCH SECOND IF.

CALL IN COMPLETEIFETCH SECOND IF.

CALL IN COMPLETE DATA ACESSS MAIN IF.

CALL IN COMPLETEIFETCH SECOND IF.

CALL IN COMPLETEIFETCH SECOND IF.

CALL IN COMPLETEIFETCH SECOND IF.

CALL IN COMPLETEIFETCH SECOND IF.

CALL IN COMPLETEIFETCH SECOND IF.

CALL IN COMPLETE DATA ACESSS MAIN IF.

CALL IN COMPLETEIFETCH SECOND IF.

CALL IN COMPLETEIFETCH SECOND IF.

CALL IN COMPLETEIFETCH SECOND IF.

CALL IN COMPLETEIFETCH SECOND IF.

CALL IN COMPLETEIFETCH SECOND IF.

CALL IN COMPLETE DATA ACESSS MAIN IF.

CALL IN COMPLETEIFETCH SECOND IF.

CALL IN COMPLETEIFETCH SECOND IF.

CALL IN COMPLETEIFETCH SECOND IF.

CALL IN COMPLETEIFETCH SECOND IF.

CALL IN COMPLETEIFETCH SECOND IF.

CALL IN COMPLETE DATA ACESSS MAIN IF.

CALL IN COMPLETEIFETCH SECOND IF.

CALL IN COMPLETEIFETCH SECOND IF.

CALL IN COMPLETEIFETCH SECOND IF.

CALL IN COMPLETEIFETCH SECOND IF.

CALL IN COMPLETEIFETCH SECOND IF.

CALL IN COMPLETE DATA ACESSS MAIN IF.

CALL IN COMPLETEIFETCH SECOND IF.

CALL IN COMPLETEIFETCH SECOND IF.

CALL IN COMPLETEIFETCH SECOND IF.

CALL IN COMPLETEIFETCH SECOND IF.

CALL IN COMPLETEIFETCH SECOND IF.

CALL IN COMPLETE DATA ACESSS MAIN IF.

CALL IN COMPLETEIFETCH SECOND IF.

CALL IN COMPLETEIFETCH SECOND IF.

CALL IN COMPLETEIFETCH SECOND IF.

CALL IN COMPLETEIFETCH SECOND IF.

CALL IN COMPLETEIFETCH SECOND IF.

CALL IN COMPLETE DATA ACESSS MAIN IF.

CALL IN COMPLETEIFETCH SECOND IF.

CALL IN COMPLETEIFETCH SECOND IF.

CALL IN COMPLETEIFETCH SECOND IF.

CALL IN COMPLETEIFETCH SECOND IF.

CALL IN COMPLETEIFETCH SECOND IF.

CALL IN COMPLETE DATA ACESSS MAIN IF.

CALL IN COMPLETEIFETCH SECOND IF.

CALL IN COMPLETEIFETCH SECOND IF.

CALL IN COMPLETEIFETCH SECOND IF.

CALL IN COMPLETEIFETCH SECOND IF.

CALL IN COMPLETEIFETCH SECOND IF.

CALL IN COMPLETE DATA ACESSS MAIN IF.

CALL IN COMPLETEIFETCH SECOND IF.

CALL IN COMPLETEIFETCH SECOND IF.

CALL IN COMPLETEIFETCH SECOND IF.

CALL IN COMPLETEIFETCH SECOND IF.

CALL IN COMPLETEIFETCH SECOND IF.

CALL IN COMPLETE DATA ACESSS MAIN IF.

CALL IN COMPLETEIFETCH SECOND IF.

CALL IN COMPLETEIFETCH SECOND IF.

CALL IN COMPLETEIFETCH SECOND IF.

CALL IN COMPLETEIFETCH SECOND IF.

CALL IN COMPLETEIFETCH SECOND IF.

CALL IN COMPLETE DATA ACESSS MAIN IF.

CALL IN COMPLETEIFETCH SECOND IF.

CALL IN COMPLETEIFETCH SECOND IF.

CALL IN COMPLETEIFETCH SECOND IF.

CALL IN COMPLETEIFETCH SECOND IF.

CALL IN COMPLETEIFETCH SECOND IF.

CALL IN COMPLETE DATA ACESSS MAIN IF.

CALL IN COMPLETEIFETCH SECOND IF.

CALL IN COMPLETEIFETCH SECOND IF.

CALL IN COMPLETEIFETCH SECOND IF.

CALL IN COMPLETEIFETCH SECOND IF.

CALL IN COMPLETEIFETCH SECOND IF.

CALL IN COMPLETE DATA ACESSS MAIN IF.

CALL IN COMPLETEIFETCH SECOND IF.

CALL IN COMPLETEIFETCH SECOND IF.

CALL IN COMPLETEIFETCH SECOND IF.

CALL IN COMPLETEIFETCH SECOND IF.

CALL IN COMPLETEIFETCH SECOND IF.

CALL IN COMPLETE DATA ACESSS MAIN IF.

CALL IN COMPLETEIFETCH SECOND IF.

CALL IN COMPLETEIFETCH SECOND IF.

CALL IN COMPLETEIFETCH SECOND IF.

CALL IN COMPLETEIFETCH SECOND IF.

CALL IN COMPLETEIFETCH SECOND IF.

CALL IN COMPLETE DATA ACESSS MAIN IF.

CALL IN COMPLETEIFETCH SECOND IF.

CALL IN COMPLETEIFETCH SECOND IF.

CALL IN COMPLETEIFETCH SECOND IF.

CALL IN COMPLETEIFETCH SECOND IF.

CALL IN COMPLETEIFETCH SECOND IF.

CALL IN COMPLETE DATA ACESSS MAIN IF.

CALL IN COMPLETEIFETCH SECOND IF.

CALL IN COMPLETEIFETCH SECOND IF.

CALL IN COMPLETEIFETCH SECOND IF.

CALL IN COMPLETEIFETCH SECOND IF.

CALL IN COMPLETEIFETCH SECOND IF.

CALL IN COMPLETE DATA ACESSS MAIN IF.

CALL IN COMPLETEIFETCH SECOND IF.

CALL IN COMPLETEIFETCH SECOND IF.

CALL IN COMPLETEIFETCH SECOND IF.

CALL IN COMPLETEIFETCH SECOND IF.

CALL IN COMPLETEIFETCH SECOND IF.

CALL IN COMPLETE DATA ACESSS MAIN IF.

CALL IN COMPLETEIFETCH SECOND IF.

CALL IN COMPLETEIFETCH SECOND IF.

CALL IN COMPLETEIFETCH SECOND IF.

CALL IN COMPLETEIFETCH SECOND IF.

CALL IN COMPLETEIFETCH SECOND IF.

CALL IN COMPLETE DATA ACESSS MAIN IF.

CALL IN COMPLETEIFETCH SECOND IF.

CALL IN COMPLETEIFETCH SECOND IF.

CALL IN COMPLETEIFETCH SECOND IF.

CALL IN COMPLETEIFETCH SECOND IF.

CALL IN COMPLETEIFETCH SECOND IF.

CALL IN COMPLETE DATA ACESSS MAIN IF.

CALL IN COMPLETEIFETCH SECOND IF.

CALL IN COMPLETEIFETCH SECOND IF.

CALL IN COMPLETEIFETCH SECOND IF.

CALL IN COMPLETEIFETCH SECOND IF.

CALL IN COMPLETEIFETCH SECOND IF.

CALL IN COMPLETE DATA ACESSS MAIN IF.

CALL IN COMPLETEIFETCH SECOND IF.

CALL IN COMPLETEIFETCH SECOND IF.

CALL IN COMPLETEIFETCH SECOND IF.

CALL IN COMPLETEIFETCH SECOND IF.

CALL IN COMPLETEIFETCH SECOND IF.

CALL IN COMPLETE DATA ACESSS MAIN IF.

CALL IN COMPLETEIFETCH SECOND IF.

CALL IN COMPLETEIFETCH SECOND IF.

CALL IN COMPLETEIFETCH SECOND IF.

CALL IN COMPLETEIFETCH SECOND IF.

CALL IN COMPLETEIFETCH SECOND IF.

CALL IN COMPLETE DATA ACESSS MAIN IF.

CALL IN COMPLETEIFETCH SECOND IF.

CALL IN COMPLETEIFETCH SECOND IF.

CALL IN COMPLETEIFETCH SECOND IF.

CALL IN COMPLETEIFETCH SECOND IF.

CALL IN COMPLETEIFETCH SECOND IF.

CALL IN COMPLETE DATA ACESSS MAIN IF.

CALL IN COMPLETEIFETCH SECOND IF.

CALL IN COMPLETEIFETCH SECOND IF.

CALL IN COMPLETEIFETCH SECOND IF.

CALL IN COMPLETEIFETCH SECOND IF.

CALL IN COMPLETEIFETCH SECOND IF.

CALL IN COMPLETE DATA ACESSS MAIN IF.

CALL IN COMPLETEIFETCH SECOND IF.

CALL IN COMPLETEIFETCH SECOND IF.

CALL IN COMPLETEIFETCH SECOND IF.

CALL IN COMPLETEIFETCH SECOND IF.

CALL IN COMPLETEIFETCH SECOND IF.

CALL IN COMPLETE DATA ACESSS MAIN IF.

CALL IN COMPLETEIFETCH SECOND IF.

CALL IN COMPLETEIFETCH SECOND IF.

CALL IN COMPLETEIFETCH SECOND IF.

CALL IN COMPLETEIFETCH SECOND IF.

CALL IN COMPLETEIFETCH SECOND IF.

CALL IN COMPLETEIFETCH SECOND IF.

CALL IN COMPLETEIFETCH SECOND IF.

CALL IN COMPLETEIFETCH SECOND IF.

CALL IN COMPLETEIFETCH SECOND IF.

CALL IN COMPLETEIFETCH SECOND IF.

CALL IN COMPLETEIFETCH SECOND IF.

CALL IN COMPLETEIFETCH SECOND IF.

CALL IN COMPLETEIFETCH SECOND IF.

CALL IN COMPLETEIFETCH SECOND IF.

CALL IN COMPLETEIFETCH SECOND IF.

CALL IN COMPLETE DATA ACESSS MAIN IF.

CALL IN COMPLETE DATA ACESSS MAIN IF.

CALL IN COMPLETEIFETCH SECOND IF.

CALL IN COMPLETEIFETCH SECOND IF.

CALL IN COMPLETEIFETCH SECOND IF.

CALL IN COMPLETEIFETCH SECOND IF.

CALL IN COMPLETE DATA ACESSS MAIN IF.

CALL IN COMPLETE DATA ACESSS MAIN IF.

CALL IN COMPLETE DATA ACESSS MAIN IF.

CALL IN COMPLETEIFETCH SECOND IF.

CALL IN COMPLETEIFETCH SECOND IF.

CALL IN COMPLETEIFETCH SECOND IF.

CALL IN COMPLETEIFETCH SECOND IF.

CALL IN COMPLETE DATA ACESSS MAIN IF.

CALL IN COMPLETEIFETCH SECOND IF.

CALL IN COMPLETEIFETCH MAIN IF.

CALL IN COMPLETEIFETCH SECOND IF.

CALL IN COMPLETEIFETCH MAIN IF.

CALL IN COMPLETE DATA ACESSS MAIN IF.

CALL IN COMPLETEIFETCH SECOND IF.

CALL IN COMPLETEIFETCH MAIN IF.

CALL IN COMPLETEIFETCH SECOND IF.

CALL IN COMPLETEIFETCH MAIN IF.

CALL IN COMPLETEIFETCH SECOND IF.

CALL IN COMPLETE DATA ACESSS MAIN IF.

CALL IN COMPLETE DATA ACESSS MAIN IF.

CALL IN COMPLETE DATA ACESSS MAIN IF.

CALL IN COMPLETEIFETCH SECOND IF.

CALL IN COMPLETEIFETCH SECOND IF.

CALL IN COMPLETEIFETCH SECOND IF.

CALL IN COMPLETEIFETCH SECOND IF.

CALL IN COMPLETE DATA ACESSS MAIN IF.

CALL IN COMPLETE DATA ACESSS MAIN IF.

CALL IN COMPLETEIFETCH SECOND IF.

CALL IN COMPLETEIFETCH SECOND IF.

CALL IN COMPLETEIFETCH SECOND IF.

CALL IN COMPLETE DATA ACESSS MAIN IF.

CALL IN COMPLETEIFETCH SECOND IF.

CALL IN COMPLETEIFETCH SECOND IF.

CALL IN COMPLETEIFETCH SECOND IF.

CALL IN COMPLETE DATA ACESSS MAIN IF.

CALL IN COMPLETEIFETCH SECOND IF.

CALL IN COMPLETE DATA ACESSS MAIN IF.

CALL IN COMPLETEIFETCH SECOND IF.

CALL IN COMPLETEIFETCH SECOND IF.

CALL IN COMPLETE DATA ACESSS MAIN IF.

CALL IN COMPLETEIFETCH SECOND IF.

CALL IN COMPLETE DATA ACESSS MAIN IF.

CALL IN COMPLETE DATA ACESSS MAIN IF.

CALL IN COMPLETE DATA ACESSS MAIN IF.

CALL IN COMPLETE DATA ACESSS MAIN IF.

CALL IN COMPLETEIFETCH SECOND IF.

CALL IN COMPLETEIFETCH SECOND IF.

CALL IN COMPLETEIFETCH SECOND IF.

CALL IN COMPLETEIFETCH SECOND IF.

CALL IN COMPLETEIFETCH SECOND IF.

CALL IN COMPLETEIFETCH SECOND IF.

CALL IN COMPLETEIFETCH SECOND IF.

CALL IN COMPLETE DATA ACESSS MAIN IF.

CALL IN COMPLETEIFETCH SECOND IF.

CALL IN COMPLETEIFETCH SECOND IF.

CALL IN COMPLETE DATA ACESSS MAIN IF.

CALL IN COMPLETEIFETCH SECOND IF.

CALL IN COMPLETEIFETCH SECOND IF.

CALL IN COMPLETE DATA ACESSS MAIN IF.

CALL IN COMPLETEIFETCH SECOND IF.

CALL IN COMPLETEIFETCH SECOND IF.

CALL IN COMPLETE DATA ACESSS MAIN IF.

CALL IN COMPLETE DATA ACESSS MAIN IF.

CALL IN COMPLETE DATA ACESSS MAIN IF.

CALL IN COMPLETE DATA ACESSS MAIN IF.

CALL IN COMPLETEIFETCH SECOND IF.

CALL IN COMPLETEIFETCH SECOND IF.

CALL IN COMPLETEIFETCH SECOND IF.

CALL IN COMPLETEIFETCH SECOND IF.

CALL IN COMPLETEIFETCH SECOND IF.

CALL IN COMPLETE DATA ACESSS MAIN IF.

CALL IN COMPLETE DATA ACESSS MAIN IF.

CALL IN COMPLETEIFETCH SECOND IF.

CALL IN COMPLETEIFETCH SECOND IF.

CALL IN COMPLETEIFETCH SECOND IF.

CALL IN COMPLETEIFETCH SECOND IF.

CALL IN COMPLETEIFETCH SECOND IF.

CALL IN COMPLETE DATA ACESSS MAIN IF.

CALL IN COMPLETE DATA ACESSS MAIN IF.

CALL IN COMPLETE DATA ACESSS MAIN IF.

CALL IN COMPLETE DATA ACESSS MAIN IF.

CALL IN COMPLETE DATA ACESSS MAIN IF.

CALL IN COMPLETE DATA ACESSS MAIN IF.

CALL IN COMPLETE DATA ACESSS MAIN IF.

CALL IN COMPLETE DATA ACESSS MAIN IF.

CALL IN COMPLETE DATA ACESSS MAIN IF.

CALL IN COMPLETEIFETCH SECOND IF.

CALL IN COMPLETE DATA ACESSS MAIN IF.

CALL IN COMPLETEIFETCH SECOND IF.

CALL IN COMPLETEIFETCH SECOND IF.

CALL IN COMPLETEIFETCH SECOND IF.

CALL IN COMPLETEIFETCH SECOND IF.

CALL IN COMPLETEIFETCH SECOND IF.

CALL IN COMPLETEIFETCH SECOND IF.

CALL IN COMPLETE DATA ACESSS MAIN IF.

CALL IN COMPLETE DATA ACESSS MAIN IF.

CALL IN COMPLETEIFETCH SECOND IF.

CALL IN COMPLETEIFETCH SECOND IF.

CALL IN COMPLETE DATA ACESSS MAIN IF.

CALL IN COMPLETEIFETCH SECOND IF.

CALL IN COMPLETE D0
ATA ACESSS MAIN IF.

CALL IN COMPLETEIFETCH SECOND IF.

CALL IN COMPLETEIFETCH SECOND IF.

CALL IN COMPLETEIFETCH SECOND IF.

CALL IN COMPLETEIFETCH SECOND IF.

CALL IN COMPLETE DATA ACESSS MAIN IF.

CALL IN COMPLETE DATA ACESSS MAIN IF.

CALL IN COMPLETE DATA ACESSS MAIN IF.

CALL IN COMPLETE DATA ACESSS MAIN IF.

CALL IN COMPLETE DATA ACESSS MAIN IF.

CALL IN COMPLETE DATA ACESSS MAIN IF.

CALL IN COMPLETEIFETCH SECOND IF.

CALL IN COMPLETEIFETCH SECOND IF.

CALL IN COMPLETEIFETCH SECOND IF.

CALL IN COMPLETEIFETCH SECOND IF.

CALL IN COMPLETEIFETCH SECOND IF.

CALL IN COMPLETEIFETCH SECOND IF.

CALL IN COMPLETEIFETCH SECOND IF.

CALL IN COMPLETE DATA ACESSS MAIN IF.

CALL IN COMPLETE DATA ACESSS MAIN IF.

CALL IN COMPLETEIFETCH SECOND IF.

CALL IN COMPLETEIFETCH SECOND IF.

CALL IN COMPLETEIFETCH SECOND IF.

CALL IN COMPLETEIFETCH SECOND IF.

CALL IN COMPLETEIFETCH SECOND IF.

CALL IN COMPLETE DATA ACESSS MAIN IF.

CALL IN COMPLETE DATA ACESSS MAIN IF.

CALL IN COMPLETEIFETCH SECOND IF.

CALL IN COMPLETE DATA ACESSS MAIN IF.

CALL IN COMPLETEIFETCH SECOND IF.

CALL IN COMPLETEIFETCH SECOND IF.

CALL IN COMPLETEIFETCH SECOND IF.

CALL IN COMPLETE DATA ACESSS MAIN IF.

CALL IN COMPLETE DATA ACESSS MAIN IF.

CALL IN COMPLETE DATA ACESSS MAIN IF.

CALL IN COMPLETE DATA ACESSS MAIN IF.

CALL IN COMPLETE DATA ACESSS MAIN IF.

CALL IN COMPLETEIFETCH SECOND IF.

CALL IN COMPLETEIFETCH SECOND IF.

CALL IN COMPLETEIFETCH SECOND IF.

CALL IN COMPLETE DATA ACESSS MAIN IF.

CALL IN COMPLETE DATA ACESSS MAIN IF.

CALL IN COMPLETE DATA ACESSS MAIN IF.

CALL IN COMPLETE DATA ACESSS MAIN IF.

CALL IN COMPLETE DATA ACESSS MAIN IF.

CALL IN COMPLETE DATA ACESSS MAIN IF.

CALL IN COMPLETEIFETCH SECOND IF.

CALL IN COMPLETEIFETCH SECOND IF.

CALL IN COMPLETEIFETCH SECOND IF.

CALL IN COMPLETEIFETCH SECOND IF.

CALL IN COMPLETEIFETCH SECOND IF.

CALL IN COMPLETEIFETCH SECOND IF.

CALL IN COMPLETEIFETCH SECOND IF.

CALL IN COMPLETEIFETCH SECOND IF.

CALL IN COMPLETE DATA ACESSS MAIN IF.

CALL IN COMPLETEIFETCH SECOND IF.

CALL IN COMPLETEIFETCH SECOND IF.

CALL IN COMPLETEIFETCH SECOND IF.

CALL IN COMPLETEIFETCH SECOND IF.

CALL IN COMPLETEIFETCH SECOND IF.

CALL IN COMPLETEIFETCH SECOND IF.

CALL IN COMPLETEIFETCH SECOND IF.

CALL IN COMPLETE DATA ACESSS MAIN IF.

CALL IN COMPLETEIFETCH SECOND IF.

CALL IN COMPLETEIFETCH SECOND IF.

CALL IN COMPLETEIFETCH SECOND IF.

CALL IN COMPLETEIFETCH SECOND IF.

CALL IN COMPLETEIFETCH SECOND IF.

CALL IN COMPLETEIFETCH SECOND IF.

CALL IN COMPLETE DATA ACESSS MAIN IF.

CALL IN COMPLETEIFETCH SECOND IF.

CALL IN COMPLETE DATA ACESSS MAIN IF.

CALL IN COMPLETEIFETCH SECOND IF.

CALL IN COMPLETEIFETCH SECOND IF.

CALL IN COMPLETEIFETCH SECOND IF.

CALL IN COMPLETEIFETCH SECOND IF.

CALL IN COMPLETEIFETCH SECOND IF.

CALL IN COMPLETEIFETCH SECOND IF.

CALL IN COMPLETEIFETCH SECOND IF.

CALL IN COMPLETEIFETCH SECOND IF.

CALL IN COMPLETEIFETCH SECOND IF.

CALL IN COMPLETEIFETCH SECOND IF.

CALL IN COMPLETEIFETCH SECOND IF.

CALL IN COMPLETEIFETCH SECOND IF.

CALL IN COMPLETEIFETCH SECOND IF.

CALL IN COMPLETEIFETCH SECOND IF.

CALL IN COMPLETE DATA ACESSS MAIN IF.

CALL IN COMPLETE DATA ACESSS MAIN IF.

CALL IN COMPLETE DATA ACESSS MAIN IF.

CALL IN COMPLETE DATA ACESSS MAIN IF.

CALL IN COMPLETE DATA ACESSS MAIN IF.

CALL IN COMPLETE DATA ACESSS MAIN IF.

CALL IN COMPLETEIFETCH SECOND IF.

CALL IN COMPLETEIFETCH SECOND IF.

CALL IN COMPLETEIFETCH SECOND IF.

CALL IN COMPLETEIFETCH SECOND IF.

CALL IN COMPLETE DATA ACESSS MAIN IF.

CALL IN COMPLETE DATA ACESSS MAIN IF.

CALL IN COMPLETE DATA ACESSS MAIN IF.

CALL IN COMPLETE DATA ACESSS MAIN IF.

CALL IN COMPLETEIFETCH SECOND IF.

CALL IN COMPLETEIFETCH SECOND IF.

CALL IN COMPLETEIFETCH SECOND IF.

CALL IN COMPLETEIFETCH SECOND IF.

CALL IN COMPLETEIFETCH SECOND IF.

CALL IN COMPLETEIFETCH SECOND IF.

CALL IN COMPLETEIFETCH SECOND IF.

CALL IN COMPLETEIFETCH SECOND IF.

CALL IN COMPLETEIFETCH SECOND IF.

CALL IN COMPLETEIFETCH SECOND IF.

CALL IN COMPLETE DATA ACESSS MAIN IF.

CALL IN COMPLETE DATA ACESSS MAIN IF.

CALL IN COMPLETE DATA ACESSS MAIN IF.

CALL IN COMPLETE DATA ACESSS MAIN IF.

CALL IN COMPLETE DATA ACESSS MAIN IF.

CALL IN COMPLETE DATA ACESSS MAIN IF.

CALL IN COMPLETEIFETCH SECOND IF.

CALL IN COMPLETEIFETCH SECOND IF.

CALL IN COMPLETEIFETCH SECOND IF.

CALL IN COMPLETEIFETCH SECOND IF.

CALL IN COMPLETEIFETCH SECOND IF.

CALL IN COMPLETEIFETCH SECOND IF.

CALL IN COMPLETEIFETCH SECOND IF.

CALL IN COMPLETEIFETCH SECOND IF.

CALL IN COMPLETE DATA ACESSS MAIN IF.

CALL IN COMPLETEIFETCH SECOND IF.

CALL IN COMPLETEIFETCH SECOND IF.

CALL IN COMPLETEIFETCH SECOND IF.

CALL IN COMPLETEIFETCH SECOND IF.

CALL IN COMPLETEIFETCH SECOND IF.

CALL IN COMPLETE DATA ACESSS MAIN IF.

CALL IN COMPLETEIFETCH SECOND IF.

CALL IN COMPLETEIFETCH SECOND IF.

CALL IN COMPLETEIFETCH SECOND IF.

CALL IN COMPLETEIFETCH SECOND IF.

CALL IN COMPLETEIFETCH SECOND IF.

CALL IN COMPLETEIFETCH SECOND IF.

CALL IN COMPLETE DATA ACESSS MAIN IF.

CALL IN COMPLETEIFETCH SECOND IF.

CALL IN COMPLETE DATA ACESSS MAIN IF.

CALL IN COMPLETEIFETCH SECOND IF.

CALL IN COMPLETEIFETCH SECOND IF.

CALL IN COMPLETEIFETCH SECOND IF.

CALL IN COMPLETEIFETCH SECOND IF.

CALL IN COMPLETEIFETCH SECOND IF.

CALL IN COMPLETEIFETCH SECOND IF.

CALL IN COMPLETEIFETCH SECOND IF.

CALL IN COMPLETEIFETCH SECOND IF.

CALL IN COMPLETEIFETCH SECOND IF.

CALL IN COMPLETEIFETCH SECOND IF.

CALL IN COMPLETEIFETCH SECOND IF.

CALL IN COMPLETEIFETCH SECOND IF.

CALL IN COMPLETE DATA ACESSS MAIN IF.

CALL IN COMPLETE DATA ACESSS MAIN IF.

CALL IN COMPLETE DATA ACESSS MAIN IF.

CALL IN COMPLETE DATA ACESSS MAIN IF.

CALL IN COMPLETE DATA ACESSS MAIN IF.

CALL IN COMPLETE DATA ACESSS MAIN IF.

CALL IN COMPLETEIFETCH SECOND IF.

CALL IN COMPLETEIFETCH SECOND IF.

CALL IN COMPLETEIFETCH SECOND IF.

CALL IN COMPLETE DATA ACESSS MAIN IF.

CALL IN COMPLETEIFETCH SECOND IF.

CALL IN COMPLETE DATA ACESSS MAIN IF.

CALL IN COMPLETEIFETCH SECOND IF.

CALL IN COMPLETEIFETCH SECOND IF.

CALL IN COMPLETEIFETCH SECOND IF.

CALL IN COMPLETEIFETCH SECOND IF.

CALL IN COMPLETEIFETCH SECOND IF.

CALL IN COMPLETEIFETCH SECOND IF.

CALL IN COMPLETEIFETCH SECOND IF.

CALL IN COMPLETEIFETCH SECOND IF.

CALL IN COMPLETEIFETCH SECOND IF.

CALL IN COMPLETEIFETCH SECOND IF.

CALL IN COMPLETEIFETCH SECOND IF.

CALL IN COMPLETEIFETCH SECOND IF.

CALL IN COMPLETEIFETCH SECOND IF.

CALL IN COMPLETE DATA ACESSS MAIN IF.

CALL IN COMPLETE DATA ACESSS MAIN IF.

CALL IN COMPLETEIFETCH SECOND IF.

CALL IN COMPLETEIFETCH SECOND IF.

CALL IN COMPLETEIFETCH SECOND IF.

CALL IN COMPLETE DATA ACESSS MAIN IF.

CALL IN COMPLETE DATA ACESSS MAIN IF.

CALL IN COMPLETE DATA ACESSS MAIN IF.

CALL IN COMPLETE DATA ACESSS MAIN IF.

CALL IN COMPLETE DATA ACESSS MAIN IF.

CALL IN COMPLETE DATA ACESSS MAIN IF.

CALL IN COMPLETEIFETCH SECOND IF.

CALL IN COMPLETEIFETCH SECOND IF.

CALL IN COMPLETEIFETCH SECOND IF.

CALL IN COMPLETE DATA ACESSS MAIN IF.

CALL IN COMPLETEIFETCH SECOND IF.

CALL IN COMPLETEIFETCH SECOND IF.

CALL IN COMPLETE DATA ACESSS MAIN IF.

CALL IN COMPLETE DATA ACESSS MAIN IF.

CALL IN COMPLETEIFETCH SECOND IF.

CALL IN COMPLETE DATA ACESSS MAIN IF.

CALL IN COMPLETE DATA ACESSS MAIN IF.

CALL IN COMPLETE DATA ACESSS MAIN IF.

CALL IN COMPLETE DATA ACESSS MAIN IF.

CALL IN COMPLETE DATA ACESSS MAIN IF.

CALL IN COMPLETEIFETCH SECOND IF.

CALL IN COMPLETE DATA ACESSS MAIN IF.

CALL IN COMPLETE DATA ACESSS MAIN IF.

CALL IN COMPLETEIFETCH SECOND IF.

CALL IN COMPLETEIFETCH SECOND IF.

CALL IN COMPLETEIFETCH SECOND IF.

CALL IN COMPLETEIFETCH SECOND IF.

CALL IN COMPLETE DATA ACESSS MAIN IF.

CALL IN COMPLETEIFETCH SECOND IF.

CALL IN COMPLETEIFETCH SECOND IF.

CALL IN COMPLETE DATA ACESSS MAIN IF.

CALL IN COMPLETE DATA ACESSS MAIN IF.

CALL IN COMPLETE DATA ACESSS MAIN IF.

CALL IN COMPLETE DATA ACESSS MAIN IF.

CALL IN COMPLETE DATA ACESSS MAIN IF.

CALL IN COMPLETE DATA ACESSS MAIN IF.

CALL IN COMPLETE DATA ACESSS MAIN IF.

CALL IN COMPLETE DATA ACESSS MAIN IF.

CALL IN COMPLETE DATA ACESSS MAIN IF.

CALL IN COMPLETEIFETCH SECOND IF.

CALL IN COMPLETEIFETCH SECOND IF.

CALL IN COMPLETEIFETCH SECOND IF.

CALL IN COMPLETEIFETCH SECOND IF.

CALL IN COMPLETEIFETCH SECOND IF.

CALL IN COMPLETE DATA ACESSS MAIN IF.

CALL IN COMPLETE DATA ACESSS MAIN IF.

CALL IN COMPLETEIFETCH SECOND IF.

CALL IN COMPLETEIFETCH SECOND IF.

CALL IN COMPLETEIFETCH SECOND IF.

CALL IN COMPLETEIFETCH SECOND IF.

CALL IN COMPLETE DATA ACESSS MAIN IF.

CALL IN COMPLETE DATA ACESSS MAIN IF.

CALL IN COMPLETEIFETCH SECOND IF.

CALL IN COMPLETEIFETCH SECOND IF.

CALL IN COMPLETEIFETCH SECOND IF.

CALL IN COMPLETEIFETCH SECOND IF.

CALL IN COMPLETEIFETCH SECOND IF.

CALL IN COMPLETEIFETCH SECOND IF.

CALL IN COMPLETEIFETCH SECOND IF.

CALL IN COMPLETEIFETCH SECOND IF.

CALL IN COMPLETEIFETCH SECOND IF.

CALL IN COMPLETE DATA ACESSS MAIN IF.

CALL IN COMPLETE DATA ACESSS MAIN IF.

CALL IN COMPLETE DATA ACESSS MAIN IF.

CALL IN COMPLETEIFETCH SECOND IF.

CALL IN COMPLETEIFETCH SECOND IF.

CALL IN COMPLETEIFETCH SECOND IF.

CALL IN COMPLETEIFETCH SECOND IF.

CALL IN COMPLETEIFETCH SECOND IF.

CALL IN COMPLETEIFETCH SECOND IF.

CALL IN COMPLETEIFETCH SECOND IF.

CALL IN COMPLETEIFETCH SECOND IF.

CALL IN COMPLETEIFETCH SECOND IF.

CALL IN COMPLETEIFETCH SECOND IF.

CALL IN COMPLETEIFETCH SECOND IF.

CALL IN COMPLETE DATA ACESSS MAIN IF.

CALL IN COMPLETE DATA ACESSS MAIN IF.

CALL IN COMPLETE DATA ACESSS MAIN IF.

CALL IN COMPLETEIFETCH SECOND IF.

CALL IN COMPLETEIFETCH SECOND IF.

CALL IN COMPLETEIFETCH SECOND IF.

CALL IN COMPLETEIFETCH SECOND IF.

CALL IN COMPLETEIFETCH SECOND IF.

CALL IN COMPLETEIFETCH SECOND IF.

CALL IN COMPLETEIFETCH SECOND IF.

CALL IN COMPLETEIFETCH SECOND IF.

CALL IN COMPLETEIFETCH SECOND IF.

CALL IN COMPLETEIFETCH SECOND IF.

CALL IN COMPLETEIFETCH SECOND IF.

CALL IN COMPLETEIFETCH SECOND IF.

CALL IN COMPLETEIFETCH SECOND IF.

CALL IN COMPLETEIFETCH SECOND IF.

CALL IN COMPLETE DATA ACESSS MAIN IF.

CALL IN COMPLETE DATA ACESSS MAIN IF.

CALL IN COMPLETE DATA ACESSS MAIN IF.

CALL IN COMPLETE DATA ACESSS MAIN IF.

CALL IN COMPLETE DATA ACESSS MAIN IF.

CALL IN COMPLETE DATA ACESSS MAIN IF.

CALL IN COMPLETEIFETCH SECOND IF.

CALL IN COMPLETEIFETCH SECOND IF.

CALL IN COMPLETEIFETCH SECOND IF.

CALL IN COMPLETEIFETCH SECOND IF.

CALL IN COMPLETEIFETCH SECOND IF.

CALL IN COMPLETEIFETCH SECOND IF.

CALL IN COMPLETE DATA ACESSS MAIN IF.

CALL IN COMPLETE DATA ACESSS MAIN IF.

CALL IN COMPLETEIFETCH SECOND IF.

CALL IN COMPLETEIFETCH SECOND IF.

CALL IN COMPLETEIFETCH SECOND IF.

CALL IN COMPLETEIFETCH SECOND IF.

CALL IN COMPLETE DATA ACESSS MAIN IF.

CALL IN COMPLETE DATA ACESSS MAIN IF.

CALL IN COMPLETEIFETCH SECOND IF.

CALL IN COMPLETE DATA ACESSS MAIN IF.

CALL IN COMPLETEIFETCH SECOND IF.

CALL IN COMPLETE DATA ACESSS MAIN IF.

CALL IN COMPLETEIFETCH SECOND IF.

CALL IN COMPLETE DATA ACESSS MAIN IF.

CALL IN COMPLETE DATA ACESSS MAIN IF.

CALL IN COMPLETE DATA ACESSS MAIN IF.

CALL IN COMPLETE DATA ACESSS MAIN IF.

CALL IN COMPLETEIFETCH SECOND IF.

CALL IN COMPLETEIFETCH SECOND IF.

CALL IN COMPLETEIFETCH SECOND IF.

CALL IN COMPLETEIFETCH SECOND IF.

CALL IN COMPLETEIFETCH SECOND IF.

CALL IN COMPLETEIFETCH SECOND IF.

CALL IN COMPLETEIFETCH SECOND IF.

CALL IN COMPLETE DATA ACESSS MAIN IF.

CALL IN COMPLETEIFETCH SECOND IF.

CALL IN COMPLETEIFETCH SECOND IF.

CALL IN COMPLETE DATA ACESSS MAIN IF.

CALL IN COMPLETEIFETCH SECOND IF.

CALL IN COMPLETEIFETCH SECOND IF.

CALL IN COMPLETE DATA ACESSS MAIN IF.

CALL IN COMPLETEIFETCH SECOND IF.

CALL IN COMPLETEIFETCH SECOND IF.

CALL IN COMPLETEIFETCH SECOND IF.

CALL IN COMPLETE DATA ACESSS MAIN IF.

CALL IN COMPLETE DATA ACESSS MAIN IF.

CALL IN COMPLETE DATA ACESSS MAIN IF.

CALL IN COMPLETEIFETCH SECOND IF.

CALL IN COMPLETEIFETCH SECOND IF.

CALL IN COMPLETEIFETCH SECOND IF.

CALL IN COMPLETEIFETCH SECOND IF.

CALL IN COMPLETEIFETCH SECOND IF.

CALL IN COMPLETEIFETCH SECOND IF.

CALL IN COMPLETEIFETCH SECOND IF.

CALL IN COMPLETEIFETCH SECOND IF.

CALL IN COMPLETE DATA ACESSS MAIN IF.

CALL IN COMPLETE DATA ACESSS MAIN IF.

CALL IN COMPLETE DATA ACESSS MAIN IF.

CALL IN COMPLETE DATA ACESSS MAIN IF.

CALL IN COMPLETEIFETCH SECOND IF.

CALL IN COMPLETEIFETCH SECOND IF.

CALL IN COMPLETEIFETCH SECOND IF.

CALL IN COMPLETEIFETCH SECOND IF.

CALL IN COMPLETEIFETCH SECOND IF.

CALL IN COMPLETEIFETCH SECOND IF.

CALL IN COMPLETEIFETCH SECOND IF.

CALL IN COMPLETE DATA ACESSS MAIN IF.

CALL IN COMPLETE DATA ACESSS MAIN IF.

CALL IN COMPLETEIFETCH SECOND IF.

CALL IN COMPLETEIFETCH SECOND IF.

CALL IN COMPLETEIFETCH SECOND IF.

CALL IN COMPLETEIFETCH SECOND IF.

CALL IN COMPLETE DATA ACESSS MAIN IF.

CALL IN COMPLETE DATA ACESSS MAIN IF.

CALL IN COMPLETEIFETCH SECOND IF.

CALL IN COMPLETE DATA ACESSS MAIN IF.

CALL IN COMPLETEIFETCH SECOND IF.

CALL IN COMPLETE DATA ACESSS MAIN IF.

CALL IN COMPLETEIFETCH SECOND IF.

CALL IN COMPLETE DATA ACESSS MAIN IF.

CALL IN COMPLETE DATA ACESSS MAIN IF.

CALL IN COMPLETE DATA ACESSS MAIN IF.

CALL IN COMPLETE DATA ACESSS MAIN IF.

CALL IN COMPLETEIFETCH SECOND IF.

CALL IN COMPLETEIFETCH SECOND IF.

CALL IN COMPLETEIFETCH SECOND IF.

CALL IN COMPLETEIFETCH SECOND IF.

CALL IN COMPLETEIFETCH SECOND IF.

CALL IN COMPLETEIFETCH SECOND IF.

CALL IN COMPLETEIFETCH SECOND IF.

CALL IN COMPLETE DATA ACESSS MAIN IF.

CALL IN COMPLETEIFETCH SECOND IF.

CALL IN COMPLETEIFETCH SECOND IF.

CALL IN COMPLETE DATA ACESSS MAIN IF.

CALL IN COMPLETEIFETCH SECOND IF.

CALL IN COMPLETEIFETCH SECOND IF.

CALL IN COMPLETE DATA ACESSS MAIN IF.

CALL IN COMPLETEIFETCH SECOND IF.

CALL IN COMPLETEIFETCH SECOND IF.

CALL IN COMPLETEIFETCH SECOND IF.

CALL IN COMPLETE DATA ACESSS MAIN IF.

CALL IN COMPLETE DATA ACESSS MAIN IF.

CALL IN COMPLETE DATA ACESSS MAIN IF.

CALL IN COMPLETEIFETCH SECOND IF.

CALL IN COMPLETEIFETCH SECOND IF.

CALL IN COMPLETEIFETCH SECOND IF.

CALL IN COMPLETEIFETCH SECOND IF.

CALL IN COMPLETEIFETCH SECOND IF.

CALL IN COMPLETEIFETCH SECOND IF.

CALL IN COMPLETEIFETCH SECOND IF.

CALL IN COMPLETEIFETCH SECOND IF.

CALL IN COMPLETE DATA ACESSS MAIN IF.

CALL IN COMPLETE DATA ACESSS MAIN IF.

CALL IN COMPLETE DATA ACESSS MAIN IF.

CALL IN COMPLETE DATA ACESSS MAIN IF.

CALL IN COMPLETEIFETCH SECOND IF.

CALL IN COMPLETEIFETCH SECOND IF.

CALL IN COMPLETEIFETCH SECOND IF.

CALL IN COMPLETEIFETCH SECOND IF.

CALL IN COMPLETEIFETCH SECOND IF.

CALL IN COMPLETEIFETCH SECOND IF.

CALL IN COMPLETEIFETCH SECOND IF.

CALL IN COMPLETE DATA ACESSS MAIN IF.

CALL IN COMPLETE DATA ACESSS MAIN IF.

CALL IN COMPLETEIFETCH SECOND IF.

CALL IN COMPLETEIFETCH SECOND IF.

CALL IN COMPLETEIFETCH SECOND IF.

CALL IN COMPLETEIFETCH SECOND IF.

CALL IN COMPLETE DATA ACESSS MAIN IF.

CALL IN COMPLETE DATA ACESSS MAIN IF.

CALL IN COMPLETEIFETCH SECOND IF.

CALL IN COMPLETE DATA ACESSS MAIN IF.

CALL IN COMPLETEIFETCH SECOND IF.

CALL IN COMPLETE DATA ACESSS MAIN IF.

CALL IN COMPLETEIFETCH SECOND IF.

CALL IN COMPLETE DATA ACESSS MAIN IF.

CALL IN COMPLETE DATA ACESSS MAIN IF.

CALL IN COMPLETE DATA ACESSS MAIN IF.

CALL IN COMPLETE DATA ACESSS MAIN IF.

CALL IN COMPLETEIFETCH SECOND IF.

CALL IN COMPLETEIFETCH SECOND IF.

CALL IN COMPLETEIFETCH SECOND IF.

CALL IN COMPLETEIFETCH SECOND IF.

CALL IN COMPLETEIFETCH SECOND IF.

CALL IN COMPLETEIFETCH SECOND IF.

CALL IN COMPLETEIFETCH SECOND IF.

CALL IN COMPLETE DATA ACESSS MAIN IF.

CALL IN COMPLETEIFETCH SECOND IF.

CALL IN COMPLETEIFETCH SECOND IF.

CALL IN COMPLETE DATA ACESSS MAIN IF.

CALL IN COMPLETEIFETCH SECOND IF.

CALL IN COMPLETEIFETCH SECOND IF.

CALL IN COMPLETE DATA ACESSS MAIN IF.

CALL IN COMPLETEIFETCH SECOND IF.

CALL IN COMPLETEIFETCH SECOND IF.

CALL IN COMPLETEIFETCH SECOND IF.

CALL IN COMPLETE DATA ACESSS MAIN IF.

CALL IN COMPLETE DATA ACESSS MAIN IF.

CALL IN COMPLETE DATA ACESSS MAIN IF.

CALL IN COMPLETEIFETCH SECOND IF.

CALL IN COMPLETEIFETCH SECOND IF.

CALL IN COMPLETEIFETCH SECOND IF.

CALL IN COMPLETEIFETCH SECOND IF.

CALL IN COMPLETEIFETCH SECOND IF.

CALL IN COMPLETEIFETCH SECOND IF.

CALL IN COMPLETEIFETCH SECOND IF.

CALL IN COMPLETEIFETCH SECOND IF.

CALL IN COMPLETE DATA ACESSS MAIN IF.

CALL IN COMPLETE DATA ACESSS MAIN IF.

CALL IN COMPLETE DATA ACESSS MAIN IF.

CALL IN COMPLETE DATA ACESSS MAIN IF.

CALL IN COMPLETEIFETCH SECOND IF.

CALL IN COMPLETEIFETCH SECOND IF.

CALL IN COMPLETEIFETCH SECOND IF.

CALL IN COMPLETEIFETCH SECOND IF.

CALL IN COMPLETEIFETCH SECOND IF.

CALL IN COMPLETEIFETCH SECOND IF.

CALL IN COMPLETEIFETCH SECOND IF.

CALL IN COMPLETE DATA ACESSS MAIN IF.

CALL IN COMPLETE DATA ACESSS MAIN IF.

CALL IN COMPLETEIFETCH SECOND IF.

CALL IN COMPLETEIFETCH SECOND IF.

CALL IN COMPLETEIFETCH SECOND IF.

CALL IN COMPLETEIFETCH SECOND IF.

CALL IN COMPLETE DATA ACESSS MAIN IF.

CALL IN COMPLETE DATA ACESSS MAIN IF.

CALL IN COMPLETEIFETCH SECOND IF.

CALL IN COMPLETE DATA ACESSS MAIN IF.

CALL IN COMPLETEIFETCH SECOND IF.

CALL IN COMPLETE DATA ACESSS MAIN IF.

CALL IN COMPLETEIFETCH SECOND IF.

[...]
KernelCounter: 5
CGRA: NOOP.Execute()

Input1 = 1632216957	Input2 = -2137588682

******** SUBTRACTION IN THIS PE -525161657************

WRITE PHYS REG NUMBER: 1

Input1 = 601683575	Input2 = 1078689307

******** SUM IN THIS PE 1680372882************

WRITE PHYS REG NUMBER: 1
CGRA: NOOP.Execute()
CGRA: NOOP.Execute()
CGRA: NOOP.Execute()
CGRA: NOOP.Execute()
CGRA: NOOP.Execute()
CGRA: NOOP.Execute()
CGRA: NOOP.Execute()
CGRA: NOOP.Execute()
CGRA: NOOP.Execute()
CGRA: NOOP.Execute()
CGRA: NOOP.Execute()
CGRA: NOOP.Execute()
CGRA: NOOP.Execute()

CALL IN CGRA COMPLETE IFETCH MEMACCESSFLAG.
advanceInst CGRA MODE

CALL IN NOW CGRA_ADVANCEINST.
*******IN ADVANCE PC******
build/ARM/cpu/timingcgra/timingcgra.cc,CGRA_advancePC,1808,PC:9a230
size of data is 64

REG NUMBER: 0 dist: 1

IN READ REGFILE

READ PHYS REG NUMBER: 1

Rotating REGS data: 495
KernelCounter: 4

Input1 = 495	Input2 = 0

******** SUM IN THIS PE 495************

Input1 = -525161657	Input2 = 0

******** SUM IN THIS PE -525161657************

Input1 = 1680372882	Input2 = 0

******** SUM IN THIS PE 1680372882************
CGRA: NOOP.Execute()
CGRA: NOOP.Execute()
CGRA: NOOP.Execute()
CGRA: NOOP.Execute()
CGRA: NOOP.Execute()
CGRA: NOOP.Execute()
CGRA: NOOP.Execute()
CGRA: NOOP.Execute()
CGRA: NOOP.Execute()
CGRA: NOOP.Execute()
CGRA: NOOP.Execute()
CGRA: NOOP.Execute()
CGRA: NOOP.Execute()

CALL IN CGRA COMPLETE IFETCH MEMACCESSFLAG.
advanceInst CGRA MODE

CALL IN NOW CGRA_ADVANCEINST.
*******IN ADVANCE PC******
build/ARM/cpu/timingcgra/timingcgra.cc,CGRA_advancePC,1808,PC:9a270
size of data is 64
KernelCounter: 4

Input1 = 495	Input2 = 1

******** SUM IN THIS PE 496************

WRITE PHYS REG NUMBER: 2

Input1 = -525161657	Input2 = 4

******** SUM IN THIS PE -525161653************

WRITE PHYS REG NUMBER: 2

Input1 = 1680372882	Input2 = 2

******** SUM IN THIS PE 1680372884************

WRITE PHYS REG NUMBER: 2
CGRA: NOOP.Execute()
CGRA: NOOP.Execute()
CGRA: NOOP.Execute()
CGRA: NOOP.Execute()
CGRA: NOOP.Execute()
CGRA: NOOP.Execute()
CGRA: NOOP.Execute()
CGRA: NOOP.Execute()
CGRA: NOOP.Execute()
CGRA: NOOP.Execute()
CGRA: NOOP.Execute()
CGRA: NOOP.Execute()
CGRA: NOOP.Execute()

CALL IN CGRA COMPLETE IFETCH MEMACCESSFLAG.
advanceInst CGRA MODE

CALL IN NOW CGRA_ADVANCEINST.
*******IN ADVANCE PC******
build/ARM/cpu/timingcgra/timingcgra.cc,CGRA_advancePC,1808,PC:9a1b0
size of data is 64
KernelCounter: 4

Input1 = 496	Input2 = 500

******** EQUALS IN THIS PE 0************

COMPARE INSTRUCTION OUTPUT = 0

Input1 = -525161653	Input2 = 3

******** PRODUCT IN THIS PE -1575484959************

Input1 = 1680372884	Input2 = 1

******** ASL IN THIS PE -934221528************
CGRA: NOOP.Execute()
CGRA: NOOP.Execute()
CGRA: NOOP.Execute()
CGRA: NOOP.Execute()
CGRA: NOOP.Execute()
CGRA: NOOP.Execute()
CGRA: NOOP.Execute()
CGRA: NOOP.Execute()
CGRA: NOOP.Execute()
CGRA: NOOP.Execute()
CGRA: NOOP.Execute()
CGRA: NOOP.Execute()
CGRA: NOOP.Execute()

CALL IN CGRA COMPLETE IFETCH MEMACCESSFLAG.
advanceInst CGRA MODE

CALL IN NOW CGRA_ADVANCEINST.
*******IN ADVANCE PC******
build/ARM/cpu/timingcgra/timingcgra.cc,CGRA_advancePC,1808,PC:9a1f0
size of data is 64

REG NUMBER: 0 dist: 2

IN READ REGFILE

READ PHYS REG NUMBER: 2

Rotating REGS data: -525161653

REG NUMBER: 0 dist: 2

IN READ REGFILE

READ PHYS REG NUMBER: 2

Rotating REGS data: 1680372884
KernelCounter: 4
CGRA: NOOP.Execute()

Input1 = -525161653	Input2 = -934221528

******** SUBTRACTION IN THIS PE 409059875************

WRITE PHYS REG NUMBER: 2

Input1 = -1575484959	Input2 = 1680372884

******** SUM IN THIS PE 104887925************

WRITE PHYS REG NUMBER: 2
CGRA: NOOP.Execute()
CGRA: NOOP.Execute()
CGRA: NOOP.Execute()
CGRA: NOOP.Execute()
CGRA: NOOP.Execute()
CGRA: NOOP.Execute()
CGRA: NOOP.Execute()
CGRA: NOOP.Execute()
CGRA: NOOP.Execute()
CGRA: NOOP.Execute()
CGRA: NOOP.Execute()
CGRA: NOOP.Execute()
CGRA: NOOP.Execute()

CALL IN CGRA COMPLETE IFETCH MEMACCESSFLAG.
advanceInst CGRA MODE

CALL IN NOW CGRA_ADVANCEINST.
*******IN ADVANCE PC******
build/ARM/cpu/timingcgra/timingcgra.cc,CGRA_advancePC,1808,PC:9a230
size of data is 64

REG NUMBER: 0 dist: 2

IN READ REGFILE

READ PHYS REG NUMBER: 2

Rotating REGS data: 496
KernelCounter: 3

Input1 = 496	Input2 = 0

******** SUM IN THIS PE 496************

Input1 = 409059875	Input2 = 0

******** SUM IN THIS PE 409059875************

Input1 = 104887925	Input2 = 0

******** SUM IN THIS PE 104887925************
CGRA: NOOP.Execute()
CGRA: NOOP.Execute()
CGRA: NOOP.Execute()
CGRA: NOOP.Execute()
CGRA: NOOP.Execute()
CGRA: NOOP.Execute()
CGRA: NOOP.Execute()
CGRA: NOOP.Execute()
CGRA: NOOP.Execute()
CGRA: NOOP.Execute()
CGRA: NOOP.Execute()
CGRA: NOOP.Execute()
CGRA: NOOP.Execute()

CALL IN CGRA COMPLETE IFETCH MEMACCESSFLAG.
advanceInst CGRA MODE

CALL IN NOW CGRA_ADVANCEINST.
*******IN ADVANCE PC******
build/ARM/cpu/timingcgra/timingcgra.cc,CGRA_advancePC,1808,PC:9a270
size of data is 64
KernelCounter: 3

Input1 = 496	Input2 = 1

******** SUM IN THIS PE 497************

WRITE PHYS REG NUMBER: 3

Input1 = 409059875	Input2 = 4

******** SUM IN THIS PE 409059879************

WRITE PHYS REG NUMBER: 3

Input1 = 104887925	Input2 = 2

******** SUM IN THIS PE 104887927************

WRITE PHYS REG NUMBER: 3
CGRA: NOOP.Execute()
CGRA: NOOP.Execute()
CGRA: NOOP.Execute()
CGRA: NOOP.Execute()
CGRA: NOOP.Execute()
CGRA: NOOP.Execute()
CGRA: NOOP.Execute()
CGRA: NOOP.Execute()
CGRA: NOOP.Execute()
CGRA: NOOP.Execute()
CGRA: NOOP.Execute()
CGRA: NOOP.Execute()
CGRA: NOOP.Execute()

CALL IN CGRA COMPLETE IFETCH MEMACCESSFLAG.
advanceInst CGRA MODE

CALL IN NOW CGRA_ADVANCEINST.
*******IN ADVANCE PC******
build/ARM/cpu/timingcgra/timingcgra.cc,CGRA_advancePC,1808,PC:9a1b0
size of data is 64
KernelCounter: 3

Input1 = 497	Input2 = 500

******** EQUALS IN THIS PE 0************

COMPARE INSTRUCTION OUTPUT = 0

Input1 = 409059879	Input2 = 3

******** PRODUCT IN THIS PE 1227179637************

Input1 = 104887927	Input2 = 1

******** ASL IN THIS PE 209775854************
CGRA: NOOP.Execute()
CGRA: NOOP.Execute()
CGRA: NOOP.Execute()
CGRA: NOOP.Execute()
CGRA: NOOP.Execute()
CGRA: NOOP.Execute()
CGRA: NOOP.Execute()
CGRA: NOOP.Execute()
CGRA: NOOP.Execute()
CGRA: NOOP.Execute()
CGRA: NOOP.Execute()
CGRA: NOOP.Execute()
CGRA: NOOP.Execute()

CALL IN CGRA COMPLETE IFETCH MEMACCESSFLAG.
advanceInst CGRA MODE

CALL IN NOW CGRA_ADVANCEINST.
*******IN ADVANCE PC******
build/ARM/cpu/timingcgra/timingcgra.cc,CGRA_advancePC,1808,PC:9a1f0
size of data is 64

REG NUMBER: 0 dist: 3

IN READ REGFILE

READ PHYS REG NUMBER: 3

Rotating REGS data: 409059879

REG NUMBER: 0 dist: 3

IN READ REGFILE

READ PHYS REG NUMBER: 3

Rotating REGS data: 104887927
KernelCounter: 3
CGRA: NOOP.Execute()

Input1 = 409059879	Input2 = 209775854

******** SUBTRACTION IN THIS PE 199284025************

WRITE PHYS REG NUMBER: 3

Input1 = 1227179637	Input2 = 104887927

******** SUM IN THIS PE 1332067564************

WRITE PHYS REG NUMBER: 3
CGRA: NOOP.Execute()
CGRA: NOOP.Execute()
CGRA: NOOP.Execute()
CGRA: NOOP.Execute()
CGRA: NOOP.Execute()
CGRA: NOOP.Execute()
CGRA: NOOP.Execute()
CGRA: NOOP.Execute()
CGRA: NOOP.Execute()
CGRA: NOOP.Execute()
CGRA: NOOP.Execute()
CGRA: NOOP.Execute()
CGRA: NOOP.Execute()

CALL IN CGRA COMPLETE IFETCH MEMACCESSFLAG.
advanceInst CGRA MODE

CALL IN NOW CGRA_ADVANCEINST.
*******IN ADVANCE PC******
build/ARM/cpu/timingcgra/timingcgra.cc,CGRA_advancePC,1808,PC:9a230
size of data is 64

REG NUMBER: 0 dist: 3

IN READ REGFILE

READ PHYS REG NUMBER: 3

Rotating REGS data: 497
KernelCounter: 2

Input1 = 497	Input2 = 0

******** SUM IN THIS PE 497************

Input1 = 199284025	Input2 = 0

******** SUM IN THIS PE 199284025************

Input1 = 1332067564	Input2 = 0

******** SUM IN THIS PE 1332067564************
CGRA: NOOP.Execute()
CGRA: NOOP.Execute()
CGRA: NOOP.Execute()
CGRA: NOOP.Execute()
CGRA: NOOP.Execute()
CGRA: NOOP.Execute()
CGRA: NOOP.Execute()
CGRA: NOOP.Execute()
CGRA: NOOP.Execute()
CGRA: NOOP.Execute()
CGRA: NOOP.Execute()
CGRA: NOOP.Execute()
CGRA: NOOP.Execute()

CALL IN CGRA COMPLETE IFETCH MEMACCESSFLAG.
advanceInst CGRA MODE

CALL IN NOW CGRA_ADVANCEINST.
*******IN ADVANCE PC******
build/ARM/cpu/timingcgra/timingcgra.cc,CGRA_advancePC,1808,PC:9a270
size of data is 64
KernelCounter: 2

Input1 = 497	Input2 = 1

******** SUM IN THIS PE 498************

WRITE PHYS REG NUMBER: 0

Input1 = 199284025	Input2 = 4

******** SUM IN THIS PE 199284029************

WRITE PHYS REG NUMBER: 0

Input1 = 1332067564	Input2 = 2

******** SUM IN THIS PE 1332067566************

WRITE PHYS REG NUMBER: 0
CGRA: NOOP.Execute()
CGRA: NOOP.Execute()
CGRA: NOOP.Execute()
CGRA: NOOP.Execute()
CGRA: NOOP.Execute()
CGRA: NOOP.Execute()
CGRA: NOOP.Execute()
CGRA: NOOP.Execute()
CGRA: NOOP.Execute()
CGRA: NOOP.Execute()
CGRA: NOOP.Execute()
CGRA: NOOP.Execute()
CGRA: NOOP.Execute()

CALL IN CGRA COMPLETE IFETCH MEMACCESSFLAG.
advanceInst CGRA MODE

CALL IN NOW CGRA_ADVANCEINST.
*******IN ADVANCE PC******
build/ARM/cpu/timingcgra/timingcgra.cc,CGRA_advancePC,1808,PC:9a1b0
size of data is 64
KernelCounter: 2

Input1 = 498	Input2 = 500

******** EQUALS IN THIS PE 0************

COMPARE INSTRUCTION OUTPUT = 0

Input1 = 199284029	Input2 = 3

******** PRODUCT IN THIS PE 597852087************

Input1 = 1332067566	Input2 = 1

******** ASL IN THIS PE -1630832164************
CGRA: NOOP.Execute()
CGRA: NOOP.Execute()
CGRA: NOOP.Execute()
CGRA: NOOP.Execute()
CGRA: NOOP.Execute()
CGRA: NOOP.Execute()
CGRA: NOOP.Execute()
CGRA: NOOP.Execute()
CGRA: NOOP.Execute()
CGRA: NOOP.Execute()
CGRA: NOOP.Execute()
CGRA: NOOP.Execute()
CGRA: NOOP.Execute()

CALL IN CGRA COMPLETE IFETCH MEMACCESSFLAG.
advanceInst CGRA MODE

CALL IN NOW CGRA_ADVANCEINST.
*******IN ADVANCE PC******
build/ARM/cpu/timingcgra/timingcgra.cc,CGRA_advancePC,1808,PC:9a1f0
size of data is 64

REG NUMBER: 0 dist: 0

IN READ REGFILE

READ PHYS REG NUMBER: 0

Rotating REGS data: 199284029

REG NUMBER: 0 dist: 0

IN READ REGFILE

READ PHYS REG NUMBER: 0

Rotating REGS data: 1332067566
KernelCounter: 2
CGRA: NOOP.Execute()

Input1 = 199284029	Input2 = -1630832164

******** SUBTRACTION IN THIS PE 1830116193************

WRITE PHYS REG NUMBER: 0

Input1 = 597852087	Input2 = 1332067566

******** SUM IN THIS PE 1929919653************

WRITE PHYS REG NUMBER: 0
CGRA: NOOP.Execute()
CGRA: NOOP.Execute()
CGRA: NOOP.Execute()
CGRA: NOOP.Execute()
CGRA: NOOP.Execute()
CGRA: NOOP.Execute()
CGRA: NOOP.Execute()
CGRA: NOOP.Execute()
CGRA: NOOP.Execute()
CGRA: NOOP.Execute()
CGRA: NOOP.Execute()
CGRA: NOOP.Execute()
CGRA: NOOP.Execute()

CALL IN CGRA COMPLETE IFETCH MEMACCESSFLAG.
advanceInst CGRA MODE

CALL IN NOW CGRA_ADVANCEINST.
*******IN ADVANCE PC******
build/ARM/cpu/timingcgra/timingcgra.cc,CGRA_advancePC,1808,PC:9a230
size of data is 64

REG NUMBER: 0 dist: 0

IN READ REGFILE

READ PHYS REG NUMBER: 0

Rotating REGS data: 498
KernelCounter: 1

Input1 = 498	Input2 = 0

******** SUM IN THIS PE 498************

Input1 = 1830116193	Input2 = 0

******** SUM IN THIS PE 1830116193************

Input1 = 1929919653	Input2 = 0

******** SUM IN THIS PE 1929919653************
CGRA: NOOP.Execute()
CGRA: NOOP.Execute()
CGRA: NOOP.Execute()
CGRA: NOOP.Execute()
CGRA: NOOP.Execute()
CGRA: NOOP.Execute()
CGRA: NOOP.Execute()
CGRA: NOOP.Execute()
CGRA: NOOP.Execute()
CGRA: NOOP.Execute()
CGRA: NOOP.Execute()
CGRA: NOOP.Execute()
CGRA: NOOP.Execute()

CALL IN CGRA COMPLETE IFETCH MEMACCESSFLAG.
advanceInst CGRA MODE

CALL IN NOW CGRA_ADVANCEINST.
*******IN ADVANCE PC******
build/ARM/cpu/timingcgra/timingcgra.cc,CGRA_advancePC,1808,PC:9a270
size of data is 64
KernelCounter: 1

Input1 = 498	Input2 = 1

******** SUM IN THIS PE 499************

WRITE PHYS REG NUMBER: 1

Input1 = 1830116193	Input2 = 4

******** SUM IN THIS PE 1830116197************

WRITE PHYS REG NUMBER: 1

Input1 = 1929919653	Input2 = 2

******** SUM IN THIS PE 1929919655************

WRITE PHYS REG NUMBER: 1
CGRA: NOOP.Execute()
CGRA: NOOP.Execute()
CGRA: NOOP.Execute()
CGRA: NOOP.Execute()
CGRA: NOOP.Execute()
CGRA: NOOP.Execute()
CGRA: NOOP.Execute()
CGRA: NOOP.Execute()
CGRA: NOOP.Execute()
CGRA: NOOP.Execute()
CGRA: NOOP.Execute()
CGRA: NOOP.Execute()
CGRA: NOOP.Execute()

CALL IN CGRA COMPLETE IFETCH MEMACCESSFLAG.
advanceInst CGRA MODE

CALL IN NOW CGRA_ADVANCEINST.
*******IN ADVANCE PC******
build/ARM/cpu/timingcgra/timingcgra.cc,CGRA_advancePC,1808,PC:9a1b0
size of data is 64
KernelCounter: 1

Input1 = 499	Input2 = 500

******** EQUALS IN THIS PE 0************

COMPARE INSTRUCTION OUTPUT = 0

Input1 = 1830116197	Input2 = 3

******** PRODUCT IN THIS PE 1195381295************

Input1 = 1929919655	Input2 = 1

******** ASL IN THIS PE -435127986************
CGRA: NOOP.Execute()
CGRA: NOOP.Execute()
CGRA: NOOP.Execute()
CGRA: NOOP.Execute()
CGRA: NOOP.Execute()
CGRA: NOOP.Execute()
CGRA: NOOP.Execute()
CGRA: NOOP.Execute()
CGRA: NOOP.Execute()
CGRA: NOOP.Execute()
CGRA: NOOP.Execute()
CGRA: NOOP.Execute()
CGRA: NOOP.Execute()

CALL IN CGRA COMPLETE IFETCH MEMACCESSFLAG.
advanceInst CGRA MODE

CALL IN NOW CGRA_ADVANCEINST.
*******IN ADVANCE PC******
build/ARM/cpu/timingcgra/timingcgra.cc,CGRA_advancePC,1808,PC:9a1f0
size of data is 64

REG NUMBER: 0 dist: 1

IN READ REGFILE

READ PHYS REG NUMBER: 1

Rotating REGS data: 1830116197

REG NUMBER: 0 dist: 1

IN READ REGFILE

READ PHYS REG NUMBER: 1

Rotating REGS data: 1929919655
KernelCounter: 1
CGRA: NOOP.Execute()

Input1 = 1830116197	Input2 = -435127986

******** SUBTRACTION IN THIS PE -2029723113************

WRITE PHYS REG NUMBER: 1

Input1 = 1195381295	Input2 = 1929919655

******** SUM IN THIS PE -1169666346************

WRITE PHYS REG NUMBER: 1
CGRA: NOOP.Execute()
CGRA: NOOP.Execute()
CGRA: NOOP.Execute()
CGRA: NOOP.Execute()
CGRA: NOOP.Execute()
CGRA: NOOP.Execute()
CGRA: NOOP.Execute()
CGRA: NOOP.Execute()
CGRA: NOOP.Execute()
CGRA: NOOP.Execute()
CGRA: NOOP.Execute()
CGRA: NOOP.Execute()
CGRA: NOOP.Execute()

CALL IN CGRA COMPLETE IFETCH MEMACCESSFLAG.
advanceInst CGRA MODE

CALL IN NOW CGRA_ADVANCEINST.
*******IN ADVANCE PC******
build/ARM/cpu/timingcgra/timingcgra.cc,CGRA_advancePC,1808,PC:9a230
size of data is 64

REG NUMBER: 0 dist: 1

IN READ REGFILE

READ PHYS REG NUMBER: 1

Rotating REGS data: 499
KernelCounter: 0

Input1 = 499	Input2 = 0

******** SUM IN THIS PE 499************

Input1 = -2029723113	Input2 = 0

******** SUM IN THIS PE -2029723113************

Input1 = -1169666346	Input2 = 0

******** SUM IN THIS PE -1169666346************
CGRA: NOOP.Execute()
CGRA: NOOP.Execute()
CGRA: NOOP.Execute()
CGRA: NOOP.Execute()
CGRA: NOOP.Execute()
CGRA: NOOP.Execute()
CGRA: NOOP.Execute()
CGRA: NOOP.Execute()
CGRA: NOOP.Execute()
CGRA: NOOP.Execute()
CGRA: NOOP.Execute()
CGRA: NOOP.Execute()
CGRA: NOOP.Execute()

CALL IN CGRA COMPLETE IFETCH MEMACCESSFLAG.
advanceInst CGRA MODE

CALL IN NOW CGRA_ADVANCEINST.
*******IN ADVANCE PC******
build/ARM/cpu/timingcgra/timingcgra.cc,CGRA_advancePC,1808,PC:9a270

KERNEL->EPILOG
size of data is 64
KernelCounter: 0

Input1 = 499	Input2 = 1

******** SUM IN THIS PE 500************

WRITE PHYS REG NUMBER: 2

Input1 = -2029723113	Input2 = 4

******** SUM IN THIS PE -2029723109************

WRITE PHYS REG NUMBER: 2

Input1 = -1169666346	Input2 = 2

******** SUM IN THIS PE -1169666344************

WRITE PHYS REG NUMBER: 2
CGRA: NOOP.Execute()
CGRA: NOOP.Execute()
CGRA: NOOP.Execute()
CGRA: NOOP.Execute()
CGRA: NOOP.Execute()
CGRA: NOOP.Execute()
CGRA: NOOP.Execute()
CGRA: NOOP.Execute()
CGRA: NOOP.Execute()
CGRA: NOOP.Execute()
CGRA: NOOP.Execute()
CGRA: NOOP.Execute()
CGRA: NOOP.Execute()

CALL IN CGRA COMPLETE IFETCH MEMACCESSFLAG.
advanceInst CGRA MODE

CALL IN NOW CGRA_ADVANCEINST.
*******IN ADVANCE PC******
build/ARM/cpu/timingcgra/timingcgra.cc,CGRA_advancePC,1808,PC:99c60
size of data is 64
KernelCounter: 0

Input1 = 500	Input2 = 500

******** EQUALS IN THIS PE 1************

COMPARE INSTRUCTION OUTPUT = 1

Input1 = -2029723109	Input2 = 3

******** PRODUCT IN THIS PE -1794202031************

Input1 = -1169666344	Input2 = 1

******** ASL IN THIS PE 1955634608************
CGRA: NOOP.Execute()
CGRA: NOOP.Execute()
CGRA: NOOP.Execute()
CGRA: NOOP.Execute()
CGRA: NOOP.Execute()
CGRA: NOOP.Execute()
CGRA: NOOP.Execute()
CGRA: NOOP.Execute()
CGRA: NOOP.Execute()
CGRA: NOOP.Execute()
CGRA: NOOP.Execute()
CGRA: NOOP.Execute()
CGRA: NOOP.Execute()

CALL IN CGRA COMPLETE IFETCH MEMACCESSFLAG.
advanceInst CGRA MODE

CALL IN NOW CGRA_ADVANCEINST.
*******IN ADVANCE PC******
build/ARM/cpu/timingcgra/timingcgra.cc,CGRA_advancePC,1808,PC:99ca0
size of data is 64

REG NUMBER: 0 dist: 2

IN READ REGFILE

READ PHYS REG NUMBER: 2

Rotating REGS data: -2029723109

REG NUMBER: 0 dist: 2

IN READ REGFILE

READ PHYS REG NUMBER: 2

Rotating REGS data: -1169666344
KernelCounter: 0
CGRA: NOOP.Execute()

Input1 = -2029723109	Input2 = 1955634608

******** SUBTRACTION IN THIS PE 309609579************

WRITE PHYS REG NUMBER: 2

Input1 = -1794202031	Input2 = -1169666344

******** SUM IN THIS PE 1331098921************

WRITE PHYS REG NUMBER: 2
CGRA: NOOP.Execute()
CGRA: NOOP.Execute()
CGRA: NOOP.Execute()
CGRA: NOOP.Execute()
CGRA: NOOP.Execute()
CGRA: NOOP.Execute()
CGRA: NOOP.Execute()
CGRA: NOOP.Execute()
CGRA: NOOP.Execute()
CGRA: NOOP.Execute()
CGRA: NOOP.Execute()
CGRA: NOOP.Execute()
CGRA: NOOP.Execute()

CALL IN CGRA COMPLETE IFETCH MEMACCESSFLAG.
advanceInst CGRA MODE

CALL IN NOW CGRA_ADVANCEINST.
*******IN ADVANCE PC******
build/ARM/cpu/timingcgra/timingcgra.cc,CGRA_advancePC,1808,PC:99ce0
size of data is 64

REG NUMBER: 4 dist: 2

IN READ REGFILE

REG NUMBER: 0 dist: 2

IN READ REGFILE

READ PHYS REG NUMBER: 2

Rotating REGS data: 0

REG NUMBER: 4 dist: 2

IN READ REGFILE
KernelCounter: 0

Input1 = 602244	Input2 = 0

******** SUM IN THIS PE 602244************

*********Setting Address 93084 ******

Input1 = 309609579	Input2 = 0

******** SUM IN THIS PE 309609579************

******** DB Output 309609579************
CGRA: NOOP.Execute()
CGRA: NOOP.Execute()
CGRA: NOOP.Execute()
CGRA: NOOP.Execute()
CGRA: NOOP.Execute()
CGRA: NOOP.Execute()

Input1 = 0	Input2 = 500

******** SUM IN THIS PE 500************

******** DB Output 500************
CGRA: NOOP.Execute()
CGRA: NOOP.Execute()

Input1 = 602248	Input2 = 0

******** SUM IN THIS PE 602248************

*********Setting Address 93088 ******
CGRA: NOOP.Execute()
CGRA: NOOP.Execute()
CGRA: NOOP.Execute()
CGRA: NOOP.Execute()
build/ARM/cpu/timingcgra/timingcgra.cc,CGRA_completeDataAccess,1314,PC:99d20
build/ARM/cpu/timingcgra/timingcgra.cc,CGRA_completeDataAccess,1314,PC:99d20

CALL IN DATA ACCESS COUNT MEMACCESS.
advanceInst CGRA MODE

CALL IN NOW CGRA_ADVANCEINST.
*******IN ADVANCE PC******
build/ARM/cpu/timingcgra/timingcgra.cc,CGRA_advancePC,1808,PC:99d20
size of data is 64

REG NUMBER: 4 dist: 3

IN READ REGFILE

REG NUMBER: 3 dist: 3

IN READ REGFILE

READ PHYS REG NUMBER: 2

Rotating REGS data: 1331098921
KernelCounter: 0
Main thread has self=622592
Printing Results For CGRA Execution.

i = 500	j = 1331098921 k = 309609579

Main thread done.
MODIFIED VALUE: 20CGRA: NOOP.Execute()

Input1 = 602240	Input2 = 0

******** SUM IN THIS PE 602240************

*********Setting Address 93080 ******

Input1 = 1331098921	Input2 = 0

******** SUM IN THIS PE 1331098921************

******** DB Output 1331098921************
CGRA: NOOP.Execute()
CGRA: NOOP.Execute()
CGRA: NOOP.Execute()
CGRA: NOOP.Execute()
CGRA: NOOP.Execute()
CGRA: NOOP.Execute()
CGRA: NOOP.Execute()
CGRA: NOOP.Execute()
CGRA: NOOP.Execute()
CGRA: NOOP.Execute()
CGRA: NOOP.Execute()
CGRA: NOOP.Execute()
CGRA: NOOP.Execute()
build/ARM/cpu/timingcgra/timingcgra.cc,CGRA_completeDataAccess,1314,PC:99d60

CALL IN DATA ACCESS COUNT MEMACCESS.
advanceInst CGRA MODE
************************PREPARING TO MOVE TO CPU************
newPC=630112, II=4, EPILog=5, Prolog=16, Len=0
**********************CGRA Execution is over**********************
******REG R11= 16*********
AFTER COMPLETETION PC: 98e0
Exiting @ tick 2674320000 because target called exit()
